
---------- Begin Simulation Statistics ----------
final_tick                                87498808500                       # Number of ticks from beginning of simulation (restored from checkpoints and never reset)
host_inst_rate                                 291092                       # Simulator instruction rate (inst/s)
host_mem_usage                                 709368                       # Number of bytes of host memory used
host_op_rate                                   291741                       # Simulator op (including micro ops) rate (op/s)
host_seconds                                   343.53                       # Real time elapsed on the host
host_tick_rate                              254701483                       # Simulator tick rate (ticks/s)
sim_freq                                 1000000000000                       # Frequency of simulated ticks
sim_insts                                   100000001                       # Number of instructions simulated
sim_ops                                     100223083                       # Number of ops (including micro ops) simulated
sim_seconds                                  0.087499                       # Number of seconds simulated
sim_ticks                                 87498808500                       # Number of ticks simulated
system.cpu.branchPred.BTBCorrect                    0                       # Number of correct BTB predictions (this stat may not work properly.
system.cpu.branchPred.BTBHitPct             99.742642                       # BTB Hit Percentage
system.cpu.branchPred.BTBHits                 2718374                       # Number of BTB hits
system.cpu.branchPred.BTBLookups              2725388                       # Number of BTB lookups
system.cpu.branchPred.RASInCorrect                  7                       # Number of incorrect RAS predictions.
system.cpu.branchPred.condIncorrect            165794                       # Number of conditional branches incorrect
system.cpu.branchPred.condPredicted           4218519                       # Number of conditional branches predicted
system.cpu.branchPred.indirectHits                268                       # Number of indirect target hits.
system.cpu.branchPred.indirectLookups             648                       # Number of indirect predictor lookups.
system.cpu.branchPred.indirectMisses              380                       # Number of indirect misses.
system.cpu.branchPred.lookups                 5253583                       # Number of BP lookups
system.cpu.branchPred.usedRAS                  119076                       # Number of times the RAS was used to get a target.
system.cpu.branchPredindirectMispredicted          157                       # Number of mispredicted indirect branches.
system.cpu.committedInsts                   100000001                       # Number of instructions committed
system.cpu.committedOps                     100223083                       # Number of ops (including micro ops) committed
system.cpu.cpi                               1.749976                       # CPI: cycles per instruction
system.cpu.discardedOps                        449031                       # Number of ops (including micro ops) which were discarded before commit
system.cpu.dtb.accesses                             0                       # DTB accesses
system.cpu.dtb.align_faults                         0                       # Number of TLB faults due to alignment restrictions
system.cpu.dtb.domain_faults                        0                       # Number of TLB faults due to domain restrictions
system.cpu.dtb.flush_entries                        0                       # Number of entries that have been flushed from TLB
system.cpu.dtb.flush_tlb                            0                       # Number of times complete TLB was flushed
system.cpu.dtb.flush_tlb_asid                       0                       # Number of times TLB was flushed by ASID
system.cpu.dtb.flush_tlb_mva                        0                       # Number of times TLB was flushed by MVA
system.cpu.dtb.flush_tlb_mva_asid                   0                       # Number of times TLB was flushed by MVA & ASID
system.cpu.dtb.hits                                 0                       # DTB hits
system.cpu.dtb.inst_accesses                        0                       # ITB inst accesses
system.cpu.dtb.inst_hits                            0                       # ITB inst hits
system.cpu.dtb.inst_misses                          0                       # ITB inst misses
system.cpu.dtb.misses                               0                       # DTB misses
system.cpu.dtb.perms_faults                         0                       # Number of TLB faults due to permissions restrictions
system.cpu.dtb.prefetch_faults                      0                       # Number of TLB faults due to prefetch
system.cpu.dtb.read_accesses                        0                       # DTB read accesses
system.cpu.dtb.read_hits                            0                       # DTB read hits
system.cpu.dtb.read_misses                          0                       # DTB read misses
system.cpu.dtb.stage2_mmu.stage2_tlb.accesses            0                       # DTB accesses
system.cpu.dtb.stage2_mmu.stage2_tlb.align_faults            0                       # Number of TLB faults due to alignment restrictions
system.cpu.dtb.stage2_mmu.stage2_tlb.domain_faults            0                       # Number of TLB faults due to domain restrictions
system.cpu.dtb.stage2_mmu.stage2_tlb.flush_entries            0                       # Number of entries that have been flushed from TLB
system.cpu.dtb.stage2_mmu.stage2_tlb.flush_tlb            0                       # Number of times complete TLB was flushed
system.cpu.dtb.stage2_mmu.stage2_tlb.flush_tlb_asid            0                       # Number of times TLB was flushed by ASID
system.cpu.dtb.stage2_mmu.stage2_tlb.flush_tlb_mva            0                       # Number of times TLB was flushed by MVA
system.cpu.dtb.stage2_mmu.stage2_tlb.flush_tlb_mva_asid            0                       # Number of times TLB was flushed by MVA & ASID
system.cpu.dtb.stage2_mmu.stage2_tlb.hits            0                       # DTB hits
system.cpu.dtb.stage2_mmu.stage2_tlb.inst_accesses            0                       # ITB inst accesses
system.cpu.dtb.stage2_mmu.stage2_tlb.inst_hits            0                       # ITB inst hits
system.cpu.dtb.stage2_mmu.stage2_tlb.inst_misses            0                       # ITB inst misses
system.cpu.dtb.stage2_mmu.stage2_tlb.misses            0                       # DTB misses
system.cpu.dtb.stage2_mmu.stage2_tlb.perms_faults            0                       # Number of TLB faults due to permissions restrictions
system.cpu.dtb.stage2_mmu.stage2_tlb.prefetch_faults            0                       # Number of TLB faults due to prefetch
system.cpu.dtb.stage2_mmu.stage2_tlb.read_accesses            0                       # DTB read accesses
system.cpu.dtb.stage2_mmu.stage2_tlb.read_hits            0                       # DTB read hits
system.cpu.dtb.stage2_mmu.stage2_tlb.read_misses            0                       # DTB read misses
system.cpu.dtb.stage2_mmu.stage2_tlb.walker.walkRequestOrigin_Requested::Data            0                       # Table walker requests started/completed, data/inst
system.cpu.dtb.stage2_mmu.stage2_tlb.walker.walkRequestOrigin_Requested::Inst            0                       # Table walker requests started/completed, data/inst
system.cpu.dtb.stage2_mmu.stage2_tlb.walker.walkRequestOrigin_Requested::total            0                       # Table walker requests started/completed, data/inst
system.cpu.dtb.stage2_mmu.stage2_tlb.walker.walkRequestOrigin_Completed::Data            0                       # Table walker requests started/completed, data/inst
system.cpu.dtb.stage2_mmu.stage2_tlb.walker.walkRequestOrigin_Completed::Inst            0                       # Table walker requests started/completed, data/inst
system.cpu.dtb.stage2_mmu.stage2_tlb.walker.walkRequestOrigin_Completed::total            0                       # Table walker requests started/completed, data/inst
system.cpu.dtb.stage2_mmu.stage2_tlb.walker.walkRequestOrigin::total            0                       # Table walker requests started/completed, data/inst
system.cpu.dtb.stage2_mmu.stage2_tlb.walker.walks            0                       # Table walker walks requested
system.cpu.dtb.stage2_mmu.stage2_tlb.write_accesses            0                       # DTB write accesses
system.cpu.dtb.stage2_mmu.stage2_tlb.write_hits            0                       # DTB write hits
system.cpu.dtb.stage2_mmu.stage2_tlb.write_misses            0                       # DTB write misses
system.cpu.dtb.walker.walkRequestOrigin_Requested::Data            0                       # Table walker requests started/completed, data/inst
system.cpu.dtb.walker.walkRequestOrigin_Requested::Inst            0                       # Table walker requests started/completed, data/inst
system.cpu.dtb.walker.walkRequestOrigin_Requested::total            0                       # Table walker requests started/completed, data/inst
system.cpu.dtb.walker.walkRequestOrigin_Completed::Data            0                       # Table walker requests started/completed, data/inst
system.cpu.dtb.walker.walkRequestOrigin_Completed::Inst            0                       # Table walker requests started/completed, data/inst
system.cpu.dtb.walker.walkRequestOrigin_Completed::total            0                       # Table walker requests started/completed, data/inst
system.cpu.dtb.walker.walkRequestOrigin::total            0                       # Table walker requests started/completed, data/inst
system.cpu.dtb.walker.walks                         0                       # Table walker walks requested
system.cpu.dtb.write_accesses                       0                       # DTB write accesses
system.cpu.dtb.write_hits                           0                       # DTB write hits
system.cpu.dtb.write_misses                         0                       # DTB write misses
system.cpu.fetch2.amo_instructions                  0                       # Number of memory atomic instructions successfully decoded
system.cpu.fetch2.fp_instructions                   0                       # Number of floating point instructions successfully decoded
system.cpu.fetch2.int_instructions           36706613                       # Number of integer instructions successfully decoded
system.cpu.fetch2.load_instructions          48291277                       # Number of memory load instructions successfully decoded
system.cpu.fetch2.store_instructions         12607998                       # Number of memory store instructions successfully decoded
system.cpu.fetch2.vec_instructions                  0                       # Number of SIMD instructions successfully decoded
system.cpu.idleCycles                        39215380                       # Total number of cycles that the object has spent stopped
system.cpu.ipc                               0.571436                       # IPC: instructions per cycle
system.cpu.itb.accesses                             0                       # DTB accesses
system.cpu.itb.align_faults                         0                       # Number of TLB faults due to alignment restrictions
system.cpu.itb.domain_faults                        0                       # Number of TLB faults due to domain restrictions
system.cpu.itb.flush_entries                        0                       # Number of entries that have been flushed from TLB
system.cpu.itb.flush_tlb                            0                       # Number of times complete TLB was flushed
system.cpu.itb.flush_tlb_asid                       0                       # Number of times TLB was flushed by ASID
system.cpu.itb.flush_tlb_mva                        0                       # Number of times TLB was flushed by MVA
system.cpu.itb.flush_tlb_mva_asid                   0                       # Number of times TLB was flushed by MVA & ASID
system.cpu.itb.hits                                 0                       # DTB hits
system.cpu.itb.inst_accesses                        0                       # ITB inst accesses
system.cpu.itb.inst_hits                            0                       # ITB inst hits
system.cpu.itb.inst_misses                          0                       # ITB inst misses
system.cpu.itb.misses                               0                       # DTB misses
system.cpu.itb.perms_faults                         0                       # Number of TLB faults due to permissions restrictions
system.cpu.itb.prefetch_faults                      0                       # Number of TLB faults due to prefetch
system.cpu.itb.read_accesses                        0                       # DTB read accesses
system.cpu.itb.read_hits                            0                       # DTB read hits
system.cpu.itb.read_misses                          0                       # DTB read misses
system.cpu.itb.stage2_mmu.stage2_tlb.accesses            0                       # DTB accesses
system.cpu.itb.stage2_mmu.stage2_tlb.align_faults            0                       # Number of TLB faults due to alignment restrictions
system.cpu.itb.stage2_mmu.stage2_tlb.domain_faults            0                       # Number of TLB faults due to domain restrictions
system.cpu.itb.stage2_mmu.stage2_tlb.flush_entries            0                       # Number of entries that have been flushed from TLB
system.cpu.itb.stage2_mmu.stage2_tlb.flush_tlb            0                       # Number of times complete TLB was flushed
system.cpu.itb.stage2_mmu.stage2_tlb.flush_tlb_asid            0                       # Number of times TLB was flushed by ASID
system.cpu.itb.stage2_mmu.stage2_tlb.flush_tlb_mva            0                       # Number of times TLB was flushed by MVA
system.cpu.itb.stage2_mmu.stage2_tlb.flush_tlb_mva_asid            0                       # Number of times TLB was flushed by MVA & ASID
system.cpu.itb.stage2_mmu.stage2_tlb.hits            0                       # DTB hits
system.cpu.itb.stage2_mmu.stage2_tlb.inst_accesses            0                       # ITB inst accesses
system.cpu.itb.stage2_mmu.stage2_tlb.inst_hits            0                       # ITB inst hits
system.cpu.itb.stage2_mmu.stage2_tlb.inst_misses            0                       # ITB inst misses
system.cpu.itb.stage2_mmu.stage2_tlb.misses            0                       # DTB misses
system.cpu.itb.stage2_mmu.stage2_tlb.perms_faults            0                       # Number of TLB faults due to permissions restrictions
system.cpu.itb.stage2_mmu.stage2_tlb.prefetch_faults            0                       # Number of TLB faults due to prefetch
system.cpu.itb.stage2_mmu.stage2_tlb.read_accesses            0                       # DTB read accesses
system.cpu.itb.stage2_mmu.stage2_tlb.read_hits            0                       # DTB read hits
system.cpu.itb.stage2_mmu.stage2_tlb.read_misses            0                       # DTB read misses
system.cpu.itb.stage2_mmu.stage2_tlb.walker.walkRequestOrigin_Requested::Data            0                       # Table walker requests started/completed, data/inst
system.cpu.itb.stage2_mmu.stage2_tlb.walker.walkRequestOrigin_Requested::Inst            0                       # Table walker requests started/completed, data/inst
system.cpu.itb.stage2_mmu.stage2_tlb.walker.walkRequestOrigin_Requested::total            0                       # Table walker requests started/completed, data/inst
system.cpu.itb.stage2_mmu.stage2_tlb.walker.walkRequestOrigin_Completed::Data            0                       # Table walker requests started/completed, data/inst
system.cpu.itb.stage2_mmu.stage2_tlb.walker.walkRequestOrigin_Completed::Inst            0                       # Table walker requests started/completed, data/inst
system.cpu.itb.stage2_mmu.stage2_tlb.walker.walkRequestOrigin_Completed::total            0                       # Table walker requests started/completed, data/inst
system.cpu.itb.stage2_mmu.stage2_tlb.walker.walkRequestOrigin::total            0                       # Table walker requests started/completed, data/inst
system.cpu.itb.stage2_mmu.stage2_tlb.walker.walks            0                       # Table walker walks requested
system.cpu.itb.stage2_mmu.stage2_tlb.write_accesses            0                       # DTB write accesses
system.cpu.itb.stage2_mmu.stage2_tlb.write_hits            0                       # DTB write hits
system.cpu.itb.stage2_mmu.stage2_tlb.write_misses            0                       # DTB write misses
system.cpu.itb.walker.walkRequestOrigin_Requested::Data            0                       # Table walker requests started/completed, data/inst
system.cpu.itb.walker.walkRequestOrigin_Requested::Inst            0                       # Table walker requests started/completed, data/inst
system.cpu.itb.walker.walkRequestOrigin_Requested::total            0                       # Table walker requests started/completed, data/inst
system.cpu.itb.walker.walkRequestOrigin_Completed::Data            0                       # Table walker requests started/completed, data/inst
system.cpu.itb.walker.walkRequestOrigin_Completed::Inst            0                       # Table walker requests started/completed, data/inst
system.cpu.itb.walker.walkRequestOrigin_Completed::total            0                       # Table walker requests started/completed, data/inst
system.cpu.itb.walker.walkRequestOrigin::total            0                       # Table walker requests started/completed, data/inst
system.cpu.itb.walker.walks                         0                       # Table walker walks requested
system.cpu.itb.write_accesses                       0                       # DTB write accesses
system.cpu.itb.write_hits                           0                       # DTB write hits
system.cpu.itb.write_misses                         0                       # DTB write misses
system.cpu.numCycles                        174997617                       # number of cpu cycles simulated
system.cpu.numFetchSuspends                         0                       # Number of times Execute suspended instruction fetching
system.cpu.numWorkItemsCompleted                    0                       # number of work items this cpu completed
system.cpu.numWorkItemsStarted                      0                       # number of work items this cpu started
system.cpu.op_class_0::No_OpClass                   0      0.00%      0.00% # Class of committed instruction
system.cpu.op_class_0::IntAlu                40801709     40.71%     40.71% # Class of committed instruction
system.cpu.op_class_0::IntMult                  20682      0.02%     40.73% # Class of committed instruction
system.cpu.op_class_0::IntDiv                       0      0.00%     40.73% # Class of committed instruction
system.cpu.op_class_0::FloatAdd                     0      0.00%     40.73% # Class of committed instruction
system.cpu.op_class_0::FloatCmp                     0      0.00%     40.73% # Class of committed instruction
system.cpu.op_class_0::FloatCvt                     0      0.00%     40.73% # Class of committed instruction
system.cpu.op_class_0::FloatMult                    0      0.00%     40.73% # Class of committed instruction
system.cpu.op_class_0::FloatMultAcc                 0      0.00%     40.73% # Class of committed instruction
system.cpu.op_class_0::FloatDiv                     0      0.00%     40.73% # Class of committed instruction
system.cpu.op_class_0::FloatMisc                    0      0.00%     40.73% # Class of committed instruction
system.cpu.op_class_0::FloatSqrt                    0      0.00%     40.73% # Class of committed instruction
system.cpu.op_class_0::SimdAdd                      0      0.00%     40.73% # Class of committed instruction
system.cpu.op_class_0::SimdAddAcc                   0      0.00%     40.73% # Class of committed instruction
system.cpu.op_class_0::SimdAlu                      0      0.00%     40.73% # Class of committed instruction
system.cpu.op_class_0::SimdCmp                      0      0.00%     40.73% # Class of committed instruction
system.cpu.op_class_0::SimdCvt                      0      0.00%     40.73% # Class of committed instruction
system.cpu.op_class_0::SimdMisc                     0      0.00%     40.73% # Class of committed instruction
system.cpu.op_class_0::SimdMult                     0      0.00%     40.73% # Class of committed instruction
system.cpu.op_class_0::SimdMultAcc                  0      0.00%     40.73% # Class of committed instruction
system.cpu.op_class_0::SimdShift                    0      0.00%     40.73% # Class of committed instruction
system.cpu.op_class_0::SimdShiftAcc                 0      0.00%     40.73% # Class of committed instruction
system.cpu.op_class_0::SimdDiv                      0      0.00%     40.73% # Class of committed instruction
system.cpu.op_class_0::SimdSqrt                     0      0.00%     40.73% # Class of committed instruction
system.cpu.op_class_0::SimdFloatAdd                 0      0.00%     40.73% # Class of committed instruction
system.cpu.op_class_0::SimdFloatAlu                 0      0.00%     40.73% # Class of committed instruction
system.cpu.op_class_0::SimdFloatCmp                 0      0.00%     40.73% # Class of committed instruction
system.cpu.op_class_0::SimdFloatCvt                 0      0.00%     40.73% # Class of committed instruction
system.cpu.op_class_0::SimdFloatDiv                 0      0.00%     40.73% # Class of committed instruction
system.cpu.op_class_0::SimdFloatMisc              102      0.00%     40.73% # Class of committed instruction
system.cpu.op_class_0::SimdFloatMult                0      0.00%     40.73% # Class of committed instruction
system.cpu.op_class_0::SimdFloatMultAcc             0      0.00%     40.73% # Class of committed instruction
system.cpu.op_class_0::SimdFloatSqrt                0      0.00%     40.73% # Class of committed instruction
system.cpu.op_class_0::SimdReduceAdd                0      0.00%     40.73% # Class of committed instruction
system.cpu.op_class_0::SimdReduceAlu                0      0.00%     40.73% # Class of committed instruction
system.cpu.op_class_0::SimdReduceCmp                0      0.00%     40.73% # Class of committed instruction
system.cpu.op_class_0::SimdFloatReduceAdd            0      0.00%     40.73% # Class of committed instruction
system.cpu.op_class_0::SimdFloatReduceCmp            0      0.00%     40.73% # Class of committed instruction
system.cpu.op_class_0::SimdAes                      0      0.00%     40.73% # Class of committed instruction
system.cpu.op_class_0::SimdAesMix                   0      0.00%     40.73% # Class of committed instruction
system.cpu.op_class_0::SimdSha1Hash                 0      0.00%     40.73% # Class of committed instruction
system.cpu.op_class_0::SimdSha1Hash2                0      0.00%     40.73% # Class of committed instruction
system.cpu.op_class_0::SimdSha256Hash               0      0.00%     40.73% # Class of committed instruction
system.cpu.op_class_0::SimdSha256Hash2              0      0.00%     40.73% # Class of committed instruction
system.cpu.op_class_0::SimdShaSigma2                0      0.00%     40.73% # Class of committed instruction
system.cpu.op_class_0::SimdShaSigma3                0      0.00%     40.73% # Class of committed instruction
system.cpu.op_class_0::SimdPredAlu                  0      0.00%     40.73% # Class of committed instruction
system.cpu.op_class_0::MemRead               46987587     46.88%     87.61% # Class of committed instruction
system.cpu.op_class_0::MemWrite              12413003     12.39%    100.00% # Class of committed instruction
system.cpu.op_class_0::FloatMemRead                 0      0.00%    100.00% # Class of committed instruction
system.cpu.op_class_0::FloatMemWrite                0      0.00%    100.00% # Class of committed instruction
system.cpu.op_class_0::IprAccess                    0      0.00%    100.00% # Class of committed instruction
system.cpu.op_class_0::InstPrefetch                 0      0.00%    100.00% # Class of committed instruction
system.cpu.op_class_0::total                100223083                       # Class of committed instruction
system.cpu.tickCycles                       135782237                       # Number of cycles that the object actually ticked
system.cpu.workload.numSyscalls                    85                       # Number of system calls
system.membus.snoop_filter.hit_multi_requests            0                       # Number of requests hitting in the snoop filter with multiple (>1) holders of the requested data.
system.membus.snoop_filter.hit_multi_snoops            0                       # Number of snoops hitting in the snoop filter with multiple (>1) holders of the requested data.
system.membus.snoop_filter.hit_single_requests       174318                       # Number of requests hitting in the snoop filter with a single holder of the requested data.
system.membus.snoop_filter.hit_single_snoops            0                       # Number of snoops hitting in the snoop filter with a single holder of the requested data.
system.membus.snoop_filter.tot_requests        381760                       # Total number of requests made to the snoop filter.
system.membus.snoop_filter.tot_snoops               0                       # Total number of snoops made to the snoop filter.
system.tol2bus.snoop_filter.hit_multi_requests          142                       # Number of requests hitting in the snoop filter with multiple (>1) holders of the requested data.
system.tol2bus.snoop_filter.hit_multi_snoops            0                       # Number of snoops hitting in the snoop filter with multiple (>1) holders of the requested data.
system.tol2bus.snoop_filter.hit_single_requests       776853                       # Number of requests hitting in the snoop filter with a single holder of the requested data.
system.tol2bus.snoop_filter.hit_single_snoops          490                       # Number of snoops hitting in the snoop filter with a single holder of the requested data.
system.tol2bus.snoop_filter.tot_requests      1555155                       # Total number of requests made to the snoop filter.
system.tol2bus.snoop_filter.tot_snoops            490                       # Total number of snoops made to the snoop filter.
system.membus.pwrStateResidencyTicks::UNDEFINED  87498808500                       # Cumulative time (in ticks) in various power states
system.membus.trans_dist::ReadResp              66995                       # Transaction distribution
system.membus.trans_dist::WritebackDirty       117256                       # Transaction distribution
system.membus.trans_dist::CleanEvict            57057                       # Transaction distribution
system.membus.trans_dist::ReadExReq            140452                       # Transaction distribution
system.membus.trans_dist::ReadExResp           140452                       # Transaction distribution
system.membus.trans_dist::ReadSharedReq         66995                       # Transaction distribution
system.membus.pkt_count_system.l2.mem_side::system.mem_ctrls.port       589207                       # Packet count per connected master and slave (bytes)
system.membus.pkt_count::total                 589207                       # Packet count per connected master and slave (bytes)
system.membus.pkt_size_system.l2.mem_side::system.mem_ctrls.port     20780992                       # Cumulative packet size per connected master and slave (bytes)
system.membus.pkt_size::total                20780992                       # Cumulative packet size per connected master and slave (bytes)
system.membus.snoops                                0                       # Total snoops (count)
system.membus.snoopTraffic                          0                       # Total snoop traffic (bytes)
system.membus.snoop_fanout::samples            207447                       # Request fanout histogram
system.membus.snoop_fanout::mean                    0                       # Request fanout histogram
system.membus.snoop_fanout::stdev                   0                       # Request fanout histogram
system.membus.snoop_fanout::underflows              0      0.00%      0.00% # Request fanout histogram
system.membus.snoop_fanout::0                  207447    100.00%    100.00% # Request fanout histogram
system.membus.snoop_fanout::1                       0      0.00%    100.00% # Request fanout histogram
system.membus.snoop_fanout::overflows               0      0.00%    100.00% # Request fanout histogram
system.membus.snoop_fanout::min_value               0                       # Request fanout histogram
system.membus.snoop_fanout::max_value               0                       # Request fanout histogram
system.membus.snoop_fanout::total              207447                       # Request fanout histogram
system.membus.respLayer1.occupancy         1118525750                       # Layer occupancy (ticks)
system.membus.respLayer1.utilization              1.3                       # Layer utilization (%)
system.membus.reqLayer0.occupancy           888604500                       # Layer occupancy (ticks)
system.membus.reqLayer0.utilization               1.0                       # Layer utilization (%)
system.tol2bus.pwrStateResidencyTicks::UNDEFINED  87498808500                       # Cumulative time (in ticks) in various power states
system.tol2bus.trans_dist::ReadResp            472440                       # Transaction distribution
system.tol2bus.trans_dist::WritebackDirty       799431                       # Transaction distribution
system.tol2bus.trans_dist::WritebackClean          226                       # Transaction distribution
system.tol2bus.trans_dist::CleanEvict          151998                       # Transaction distribution
system.tol2bus.trans_dist::ReadExReq           305863                       # Transaction distribution
system.tol2bus.trans_dist::ReadExResp          305863                       # Transaction distribution
system.tol2bus.trans_dist::ReadCleanReq           653                       # Transaction distribution
system.tol2bus.trans_dist::ReadSharedReq       471787                       # Transaction distribution
system.tol2bus.pkt_count_system.cpu.icache.mem_side::system.l2.cpu_side         1532                       # Packet count per connected master and slave (bytes)
system.tol2bus.pkt_count_system.cpu.dcache.mem_side::system.l2.cpu_side      2331926                       # Packet count per connected master and slave (bytes)
system.tol2bus.pkt_count::total               2333458                       # Packet count per connected master and slave (bytes)
system.tol2bus.pkt_size_system.cpu.icache.mem_side::system.l2.cpu_side        56256                       # Cumulative packet size per connected master and slave (bytes)
system.tol2bus.pkt_size_system.cpu.dcache.mem_side::system.l2.cpu_side     93428800                       # Cumulative packet size per connected master and slave (bytes)
system.tol2bus.pkt_size::total               93485056                       # Cumulative packet size per connected master and slave (bytes)
system.tol2bus.snoops                          174803                       # Total snoops (count)
system.tol2bus.snoopTraffic                   7504384                       # Total snoop traffic (bytes)
system.tol2bus.snoop_fanout::samples           953106                       # Request fanout histogram
system.tol2bus.snoop_fanout::mean            0.000664                       # Request fanout histogram
system.tol2bus.snoop_fanout::stdev           0.025762                       # Request fanout histogram
system.tol2bus.snoop_fanout::underflows             0      0.00%      0.00% # Request fanout histogram
system.tol2bus.snoop_fanout::0                 952473     99.93%     99.93% # Request fanout histogram
system.tol2bus.snoop_fanout::1                    633      0.07%    100.00% # Request fanout histogram
system.tol2bus.snoop_fanout::2                      0      0.00%    100.00% # Request fanout histogram
system.tol2bus.snoop_fanout::overflows              0      0.00%    100.00% # Request fanout histogram
system.tol2bus.snoop_fanout::min_value              0                       # Request fanout histogram
system.tol2bus.snoop_fanout::max_value              1                       # Request fanout histogram
system.tol2bus.snoop_fanout::total             953106                       # Request fanout histogram
system.tol2bus.reqLayer0.occupancy         1459978500                       # Layer occupancy (ticks)
system.tol2bus.reqLayer0.utilization              1.7                       # Layer utilization (%)
system.tol2bus.respLayer1.occupancy        1166479491                       # Layer occupancy (ticks)
system.tol2bus.respLayer1.utilization             1.3                       # Layer utilization (%)
system.tol2bus.respLayer0.occupancy            979500                       # Layer occupancy (ticks)
system.tol2bus.respLayer0.utilization             0.0                       # Layer utilization (%)
system.voltage_domain.voltage                       1                       # Voltage in Volts
system.clk_domain.clock                          1000                       # Clock period in ticks
system.l2.pwrStateResidencyTicks::UNDEFINED  87498808500                       # Cumulative time (in ticks) in various power states
system.l2.demand_hits::.cpu.inst                   41                       # number of demand (read+write) hits
system.l2.demand_hits::.cpu.data               570806                       # number of demand (read+write) hits
system.l2.demand_hits::total                   570847                       # number of demand (read+write) hits
system.l2.overall_hits::.cpu.inst                  41                       # number of overall hits
system.l2.overall_hits::.cpu.data              570806                       # number of overall hits
system.l2.overall_hits::total                  570847                       # number of overall hits
system.l2.demand_misses::.cpu.inst                612                       # number of demand (read+write) misses
system.l2.demand_misses::.cpu.data             206844                       # number of demand (read+write) misses
system.l2.demand_misses::total                 207456                       # number of demand (read+write) misses
system.l2.overall_misses::.cpu.inst               612                       # number of overall misses
system.l2.overall_misses::.cpu.data            206844                       # number of overall misses
system.l2.overall_misses::total                207456                       # number of overall misses
system.l2.demand_miss_latency::.cpu.inst     47584000                       # number of demand (read+write) miss cycles
system.l2.demand_miss_latency::.cpu.data  17484559000                       # number of demand (read+write) miss cycles
system.l2.demand_miss_latency::total      17532143000                       # number of demand (read+write) miss cycles
system.l2.overall_miss_latency::.cpu.inst     47584000                       # number of overall miss cycles
system.l2.overall_miss_latency::.cpu.data  17484559000                       # number of overall miss cycles
system.l2.overall_miss_latency::total     17532143000                       # number of overall miss cycles
system.l2.demand_accesses::.cpu.inst              653                       # number of demand (read+write) accesses
system.l2.demand_accesses::.cpu.data           777650                       # number of demand (read+write) accesses
system.l2.demand_accesses::total               778303                       # number of demand (read+write) accesses
system.l2.overall_accesses::.cpu.inst             653                       # number of overall (read+write) accesses
system.l2.overall_accesses::.cpu.data          777650                       # number of overall (read+write) accesses
system.l2.overall_accesses::total              778303                       # number of overall (read+write) accesses
system.l2.demand_miss_rate::.cpu.inst        0.937213                       # miss rate for demand accesses
system.l2.demand_miss_rate::.cpu.data        0.265986                       # miss rate for demand accesses
system.l2.demand_miss_rate::total            0.266549                       # miss rate for demand accesses
system.l2.overall_miss_rate::.cpu.inst       0.937213                       # miss rate for overall accesses
system.l2.overall_miss_rate::.cpu.data       0.265986                       # miss rate for overall accesses
system.l2.overall_miss_rate::total           0.266549                       # miss rate for overall accesses
system.l2.demand_avg_miss_latency::.cpu.inst 77751.633987                       # average overall miss latency
system.l2.demand_avg_miss_latency::.cpu.data 84530.172497                       # average overall miss latency
system.l2.demand_avg_miss_latency::total 84510.175652                       # average overall miss latency
system.l2.overall_avg_miss_latency::.cpu.inst 77751.633987                       # average overall miss latency
system.l2.overall_avg_miss_latency::.cpu.data 84530.172497                       # average overall miss latency
system.l2.overall_avg_miss_latency::total 84510.175652                       # average overall miss latency
system.l2.blocked_cycles::no_mshrs                  0                       # number of cycles access was blocked
system.l2.blocked_cycles::no_targets                0                       # number of cycles access was blocked
system.l2.blocked::no_mshrs                         0                       # number of cycles access was blocked
system.l2.blocked::no_targets                       0                       # number of cycles access was blocked
system.l2.avg_blocked_cycles::no_mshrs            nan                       # average number of cycles each access was blocked
system.l2.avg_blocked_cycles::no_targets          nan                       # average number of cycles each access was blocked
system.l2.writebacks::.writebacks              117256                       # number of writebacks
system.l2.writebacks::total                    117256                       # number of writebacks
system.l2.demand_mshr_hits::.cpu.data               9                       # number of demand (read+write) MSHR hits
system.l2.demand_mshr_hits::total                   9                       # number of demand (read+write) MSHR hits
system.l2.overall_mshr_hits::.cpu.data              9                       # number of overall MSHR hits
system.l2.overall_mshr_hits::total                  9                       # number of overall MSHR hits
system.l2.demand_mshr_misses::.cpu.inst           612                       # number of demand (read+write) MSHR misses
system.l2.demand_mshr_misses::.cpu.data        206835                       # number of demand (read+write) MSHR misses
system.l2.demand_mshr_misses::total            207447                       # number of demand (read+write) MSHR misses
system.l2.overall_mshr_misses::.cpu.inst          612                       # number of overall MSHR misses
system.l2.overall_mshr_misses::.cpu.data       206835                       # number of overall MSHR misses
system.l2.overall_mshr_misses::total           207447                       # number of overall MSHR misses
system.l2.demand_mshr_miss_latency::.cpu.inst     41464000                       # number of demand (read+write) MSHR miss cycles
system.l2.demand_mshr_miss_latency::.cpu.data  15415624000                       # number of demand (read+write) MSHR miss cycles
system.l2.demand_mshr_miss_latency::total  15457088000                       # number of demand (read+write) MSHR miss cycles
system.l2.overall_mshr_miss_latency::.cpu.inst     41464000                       # number of overall MSHR miss cycles
system.l2.overall_mshr_miss_latency::.cpu.data  15415624000                       # number of overall MSHR miss cycles
system.l2.overall_mshr_miss_latency::total  15457088000                       # number of overall MSHR miss cycles
system.l2.demand_mshr_miss_rate::.cpu.inst     0.937213                       # mshr miss rate for demand accesses
system.l2.demand_mshr_miss_rate::.cpu.data     0.265974                       # mshr miss rate for demand accesses
system.l2.demand_mshr_miss_rate::total       0.266538                       # mshr miss rate for demand accesses
system.l2.overall_mshr_miss_rate::.cpu.inst     0.937213                       # mshr miss rate for overall accesses
system.l2.overall_mshr_miss_rate::.cpu.data     0.265974                       # mshr miss rate for overall accesses
system.l2.overall_mshr_miss_rate::total      0.266538                       # mshr miss rate for overall accesses
system.l2.demand_avg_mshr_miss_latency::.cpu.inst 67751.633987                       # average overall mshr miss latency
system.l2.demand_avg_mshr_miss_latency::.cpu.data 74531.022312                       # average overall mshr miss latency
system.l2.demand_avg_mshr_miss_latency::total 74511.022092                       # average overall mshr miss latency
system.l2.overall_avg_mshr_miss_latency::.cpu.inst 67751.633987                       # average overall mshr miss latency
system.l2.overall_avg_mshr_miss_latency::.cpu.data 74531.022312                       # average overall mshr miss latency
system.l2.overall_avg_mshr_miss_latency::total 74511.022092                       # average overall mshr miss latency
system.l2.replacements                         174803                       # number of replacements
system.l2.WritebackDirty_hits::.writebacks       682175                       # number of WritebackDirty hits
system.l2.WritebackDirty_hits::total           682175                       # number of WritebackDirty hits
system.l2.WritebackDirty_accesses::.writebacks       682175                       # number of WritebackDirty accesses(hits+misses)
system.l2.WritebackDirty_accesses::total       682175                       # number of WritebackDirty accesses(hits+misses)
system.l2.WritebackClean_hits::.writebacks          219                       # number of WritebackClean hits
system.l2.WritebackClean_hits::total              219                       # number of WritebackClean hits
system.l2.WritebackClean_accesses::.writebacks          219                       # number of WritebackClean accesses(hits+misses)
system.l2.WritebackClean_accesses::total          219                       # number of WritebackClean accesses(hits+misses)
system.l2.ReadExReq_hits::.cpu.data            165411                       # number of ReadExReq hits
system.l2.ReadExReq_hits::total                165411                       # number of ReadExReq hits
system.l2.ReadExReq_misses::.cpu.data          140452                       # number of ReadExReq misses
system.l2.ReadExReq_misses::total              140452                       # number of ReadExReq misses
system.l2.ReadExReq_miss_latency::.cpu.data  12257034000                       # number of ReadExReq miss cycles
system.l2.ReadExReq_miss_latency::total   12257034000                       # number of ReadExReq miss cycles
system.l2.ReadExReq_accesses::.cpu.data        305863                       # number of ReadExReq accesses(hits+misses)
system.l2.ReadExReq_accesses::total            305863                       # number of ReadExReq accesses(hits+misses)
system.l2.ReadExReq_miss_rate::.cpu.data     0.459199                       # miss rate for ReadExReq accesses
system.l2.ReadExReq_miss_rate::total         0.459199                       # miss rate for ReadExReq accesses
system.l2.ReadExReq_avg_miss_latency::.cpu.data 87268.490303                       # average ReadExReq miss latency
system.l2.ReadExReq_avg_miss_latency::total 87268.490303                       # average ReadExReq miss latency
system.l2.ReadExReq_mshr_misses::.cpu.data       140452                       # number of ReadExReq MSHR misses
system.l2.ReadExReq_mshr_misses::total         140452                       # number of ReadExReq MSHR misses
system.l2.ReadExReq_mshr_miss_latency::.cpu.data  10852514000                       # number of ReadExReq MSHR miss cycles
system.l2.ReadExReq_mshr_miss_latency::total  10852514000                       # number of ReadExReq MSHR miss cycles
system.l2.ReadExReq_mshr_miss_rate::.cpu.data     0.459199                       # mshr miss rate for ReadExReq accesses
system.l2.ReadExReq_mshr_miss_rate::total     0.459199                       # mshr miss rate for ReadExReq accesses
system.l2.ReadExReq_avg_mshr_miss_latency::.cpu.data 77268.490303                       # average ReadExReq mshr miss latency
system.l2.ReadExReq_avg_mshr_miss_latency::total 77268.490303                       # average ReadExReq mshr miss latency
system.l2.ReadCleanReq_hits::.cpu.inst             41                       # number of ReadCleanReq hits
system.l2.ReadCleanReq_hits::total                 41                       # number of ReadCleanReq hits
system.l2.ReadCleanReq_misses::.cpu.inst          612                       # number of ReadCleanReq misses
system.l2.ReadCleanReq_misses::total              612                       # number of ReadCleanReq misses
system.l2.ReadCleanReq_miss_latency::.cpu.inst     47584000                       # number of ReadCleanReq miss cycles
system.l2.ReadCleanReq_miss_latency::total     47584000                       # number of ReadCleanReq miss cycles
system.l2.ReadCleanReq_accesses::.cpu.inst          653                       # number of ReadCleanReq accesses(hits+misses)
system.l2.ReadCleanReq_accesses::total            653                       # number of ReadCleanReq accesses(hits+misses)
system.l2.ReadCleanReq_miss_rate::.cpu.inst     0.937213                       # miss rate for ReadCleanReq accesses
system.l2.ReadCleanReq_miss_rate::total      0.937213                       # miss rate for ReadCleanReq accesses
system.l2.ReadCleanReq_avg_miss_latency::.cpu.inst 77751.633987                       # average ReadCleanReq miss latency
system.l2.ReadCleanReq_avg_miss_latency::total 77751.633987                       # average ReadCleanReq miss latency
system.l2.ReadCleanReq_mshr_misses::.cpu.inst          612                       # number of ReadCleanReq MSHR misses
system.l2.ReadCleanReq_mshr_misses::total          612                       # number of ReadCleanReq MSHR misses
system.l2.ReadCleanReq_mshr_miss_latency::.cpu.inst     41464000                       # number of ReadCleanReq MSHR miss cycles
system.l2.ReadCleanReq_mshr_miss_latency::total     41464000                       # number of ReadCleanReq MSHR miss cycles
system.l2.ReadCleanReq_mshr_miss_rate::.cpu.inst     0.937213                       # mshr miss rate for ReadCleanReq accesses
system.l2.ReadCleanReq_mshr_miss_rate::total     0.937213                       # mshr miss rate for ReadCleanReq accesses
system.l2.ReadCleanReq_avg_mshr_miss_latency::.cpu.inst 67751.633987                       # average ReadCleanReq mshr miss latency
system.l2.ReadCleanReq_avg_mshr_miss_latency::total 67751.633987                       # average ReadCleanReq mshr miss latency
system.l2.ReadSharedReq_hits::.cpu.data        405395                       # number of ReadSharedReq hits
system.l2.ReadSharedReq_hits::total            405395                       # number of ReadSharedReq hits
system.l2.ReadSharedReq_misses::.cpu.data        66392                       # number of ReadSharedReq misses
system.l2.ReadSharedReq_misses::total           66392                       # number of ReadSharedReq misses
system.l2.ReadSharedReq_miss_latency::.cpu.data   5227525000                       # number of ReadSharedReq miss cycles
system.l2.ReadSharedReq_miss_latency::total   5227525000                       # number of ReadSharedReq miss cycles
system.l2.ReadSharedReq_accesses::.cpu.data       471787                       # number of ReadSharedReq accesses(hits+misses)
system.l2.ReadSharedReq_accesses::total        471787                       # number of ReadSharedReq accesses(hits+misses)
system.l2.ReadSharedReq_miss_rate::.cpu.data     0.140725                       # miss rate for ReadSharedReq accesses
system.l2.ReadSharedReq_miss_rate::total     0.140725                       # miss rate for ReadSharedReq accesses
system.l2.ReadSharedReq_avg_miss_latency::.cpu.data 78737.272563                       # average ReadSharedReq miss latency
system.l2.ReadSharedReq_avg_miss_latency::total 78737.272563                       # average ReadSharedReq miss latency
system.l2.ReadSharedReq_mshr_hits::.cpu.data            9                       # number of ReadSharedReq MSHR hits
system.l2.ReadSharedReq_mshr_hits::total            9                       # number of ReadSharedReq MSHR hits
system.l2.ReadSharedReq_mshr_misses::.cpu.data        66383                       # number of ReadSharedReq MSHR misses
system.l2.ReadSharedReq_mshr_misses::total        66383                       # number of ReadSharedReq MSHR misses
system.l2.ReadSharedReq_mshr_miss_latency::.cpu.data   4563110000                       # number of ReadSharedReq MSHR miss cycles
system.l2.ReadSharedReq_mshr_miss_latency::total   4563110000                       # number of ReadSharedReq MSHR miss cycles
system.l2.ReadSharedReq_mshr_miss_rate::.cpu.data     0.140705                       # mshr miss rate for ReadSharedReq accesses
system.l2.ReadSharedReq_mshr_miss_rate::total     0.140705                       # mshr miss rate for ReadSharedReq accesses
system.l2.ReadSharedReq_avg_mshr_miss_latency::.cpu.data 68739.135020                       # average ReadSharedReq mshr miss latency
system.l2.ReadSharedReq_avg_mshr_miss_latency::total 68739.135020                       # average ReadSharedReq mshr miss latency
system.l2.tags.pwrStateResidencyTicks::UNDEFINED  87498808500                       # Cumulative time (in ticks) in various power states
system.l2.tags.tagsinuse                 31934.887192                       # Cycle average of tags in use
system.l2.tags.total_refs                     1555004                       # Total number of references to valid blocks.
system.l2.tags.sampled_refs                    207571                       # Sample count of references to valid blocks.
system.l2.tags.avg_refs                      7.491432                       # Average number of references to valid blocks.
system.l2.tags.warmup_cycle                     77000                       # Cycle when the warmup percentage was hit.
system.l2.tags.occ_blocks::.writebacks      40.851645                       # Average occupied blocks per requestor
system.l2.tags.occ_blocks::.cpu.inst        79.683608                       # Average occupied blocks per requestor
system.l2.tags.occ_blocks::.cpu.data     31814.351939                       # Average occupied blocks per requestor
system.l2.tags.occ_percent::.writebacks      0.001247                       # Average percentage of cache occupancy
system.l2.tags.occ_percent::.cpu.inst        0.002432                       # Average percentage of cache occupancy
system.l2.tags.occ_percent::.cpu.data        0.970897                       # Average percentage of cache occupancy
system.l2.tags.occ_percent::total            0.974575                       # Average percentage of cache occupancy
system.l2.tags.occ_task_id_blocks::1024         32768                       # Occupied blocks per task id
system.l2.tags.age_task_id_blocks_1024::0            2                       # Occupied blocks per task id
system.l2.tags.age_task_id_blocks_1024::1           13                       # Occupied blocks per task id
system.l2.tags.age_task_id_blocks_1024::2          731                       # Occupied blocks per task id
system.l2.tags.age_task_id_blocks_1024::3         8996                       # Occupied blocks per task id
system.l2.tags.age_task_id_blocks_1024::4        23026                       # Occupied blocks per task id
system.l2.tags.occ_task_id_percent::1024            1                       # Percentage of cache occupancy per task id
system.l2.tags.tag_accesses                  12647675                       # Number of tag accesses
system.l2.tags.data_accesses                 12647675                       # Number of data accesses
system.cpu_voltage_domain.voltage                   1                       # Voltage in Volts
system.mem_ctrls.pwrStateResidencyTicks::UNDEFINED  87498808500                       # Cumulative time (in ticks) in various power states
system.mem_ctrls.bytes_read::.cpu.inst          39168                       # Number of bytes read from this memory
system.mem_ctrls.bytes_read::.cpu.data       13237440                       # Number of bytes read from this memory
system.mem_ctrls.bytes_read::total           13276608                       # Number of bytes read from this memory
system.mem_ctrls.bytes_inst_read::.cpu.inst        39168                       # Number of instructions bytes read from this memory
system.mem_ctrls.bytes_inst_read::total         39168                       # Number of instructions bytes read from this memory
system.mem_ctrls.bytes_written::.writebacks      7504384                       # Number of bytes written to this memory
system.mem_ctrls.bytes_written::total         7504384                       # Number of bytes written to this memory
system.mem_ctrls.num_reads::.cpu.inst             612                       # Number of read requests responded to by this memory
system.mem_ctrls.num_reads::.cpu.data          206835                       # Number of read requests responded to by this memory
system.mem_ctrls.num_reads::total              207447                       # Number of read requests responded to by this memory
system.mem_ctrls.num_writes::.writebacks       117256                       # Number of write requests responded to by this memory
system.mem_ctrls.num_writes::total             117256                       # Number of write requests responded to by this memory
system.mem_ctrls.bw_read::.cpu.inst            447640                       # Total read bandwidth from this memory (bytes/s)
system.mem_ctrls.bw_read::.cpu.data         151287089                       # Total read bandwidth from this memory (bytes/s)
system.mem_ctrls.bw_read::total             151734729                       # Total read bandwidth from this memory (bytes/s)
system.mem_ctrls.bw_inst_read::.cpu.inst       447640                       # Instruction read bandwidth from this memory (bytes/s)
system.mem_ctrls.bw_inst_read::total           447640                       # Instruction read bandwidth from this memory (bytes/s)
system.mem_ctrls.bw_write::.writebacks       85765556                       # Write bandwidth from this memory (bytes/s)
system.mem_ctrls.bw_write::total             85765556                       # Write bandwidth from this memory (bytes/s)
system.mem_ctrls.bw_total::.writebacks       85765556                       # Total bandwidth to/from this memory (bytes/s)
system.mem_ctrls.bw_total::.cpu.inst           447640                       # Total bandwidth to/from this memory (bytes/s)
system.mem_ctrls.bw_total::.cpu.data        151287089                       # Total bandwidth to/from this memory (bytes/s)
system.mem_ctrls.bw_total::total            237500286                       # Total bandwidth to/from this memory (bytes/s)
system.mem_ctrls.avgPriority_.writebacks::samples    117256.00                       # Average QoS priority value for accepted requests
system.mem_ctrls.avgPriority_.cpu.inst::samples       612.00                       # Average QoS priority value for accepted requests
system.mem_ctrls.avgPriority_.cpu.data::samples    206796.00                       # Average QoS priority value for accepted requests
system.mem_ctrls.priorityMinLatency      0.000000018750                       # per QoS priority minimum request to response latency (s)
system.mem_ctrls.priorityMaxLatency      0.002729798500                       # per QoS priority maximum request to response latency (s)
system.mem_ctrls.numReadWriteTurnArounds         7007                       # Number of turnarounds from READ to WRITE
system.mem_ctrls.numWriteReadTurnArounds         7007                       # Number of turnarounds from WRITE to READ
system.mem_ctrls.numStayReadState              543840                       # Number of times bus staying in READ state
system.mem_ctrls.numStayWriteState             110377                       # Number of times bus staying in WRITE state
system.mem_ctrls.readReqs                      207447                       # Number of read requests accepted
system.mem_ctrls.writeReqs                     117256                       # Number of write requests accepted
system.mem_ctrls.readBursts                    207447                       # Number of DRAM read bursts, including those serviced by the write queue
system.mem_ctrls.writeBursts                   117256                       # Number of DRAM write bursts, including those merged in the write queue
system.mem_ctrls.servicedByWrQ                     39                       # Number of DRAM read bursts serviced by the write queue
system.mem_ctrls.mergedWrBursts                     0                       # Number of DRAM write bursts merged with an existing one
system.mem_ctrls.neitherReadNorWriteReqs            0                       # Number of requests that are neither read nor write
system.mem_ctrls.perBankRdBursts::0             13167                       # Per bank write bursts
system.mem_ctrls.perBankRdBursts::1             13312                       # Per bank write bursts
system.mem_ctrls.perBankRdBursts::2             13140                       # Per bank write bursts
system.mem_ctrls.perBankRdBursts::3             13068                       # Per bank write bursts
system.mem_ctrls.perBankRdBursts::4             13087                       # Per bank write bursts
system.mem_ctrls.perBankRdBursts::5             13009                       # Per bank write bursts
system.mem_ctrls.perBankRdBursts::6             13094                       # Per bank write bursts
system.mem_ctrls.perBankRdBursts::7             12919                       # Per bank write bursts
system.mem_ctrls.perBankRdBursts::8             12923                       # Per bank write bursts
system.mem_ctrls.perBankRdBursts::9             12751                       # Per bank write bursts
system.mem_ctrls.perBankRdBursts::10            12648                       # Per bank write bursts
system.mem_ctrls.perBankRdBursts::11            12831                       # Per bank write bursts
system.mem_ctrls.perBankRdBursts::12            12937                       # Per bank write bursts
system.mem_ctrls.perBankRdBursts::13            12842                       # Per bank write bursts
system.mem_ctrls.perBankRdBursts::14            12809                       # Per bank write bursts
system.mem_ctrls.perBankRdBursts::15            12871                       # Per bank write bursts
system.mem_ctrls.perBankWrBursts::0              7305                       # Per bank write bursts
system.mem_ctrls.perBankWrBursts::1              7504                       # Per bank write bursts
system.mem_ctrls.perBankWrBursts::2              7398                       # Per bank write bursts
system.mem_ctrls.perBankWrBursts::3              7397                       # Per bank write bursts
system.mem_ctrls.perBankWrBursts::4              7502                       # Per bank write bursts
system.mem_ctrls.perBankWrBursts::5              7449                       # Per bank write bursts
system.mem_ctrls.perBankWrBursts::6              7487                       # Per bank write bursts
system.mem_ctrls.perBankWrBursts::7              7359                       # Per bank write bursts
system.mem_ctrls.perBankWrBursts::8              7393                       # Per bank write bursts
system.mem_ctrls.perBankWrBursts::9              7333                       # Per bank write bursts
system.mem_ctrls.perBankWrBursts::10             7152                       # Per bank write bursts
system.mem_ctrls.perBankWrBursts::11             7149                       # Per bank write bursts
system.mem_ctrls.perBankWrBursts::12             7240                       # Per bank write bursts
system.mem_ctrls.perBankWrBursts::13             7180                       # Per bank write bursts
system.mem_ctrls.perBankWrBursts::14             7192                       # Per bank write bursts
system.mem_ctrls.perBankWrBursts::15             7196                       # Per bank write bursts
system.mem_ctrls.avgRdQLen                       1.08                       # Average read queue length when enqueuing
system.mem_ctrls.avgWrQLen                      24.79                       # Average write queue length when enqueuing
system.mem_ctrls.totQLat                   3015743500                       # Total ticks spent queuing
system.mem_ctrls.totBusLat                 1037040000                       # Total ticks spent in databus transfers
system.mem_ctrls.totMemAccLat              6904643500                       # Total ticks spent from burst creation until serviced by the DRAM
system.mem_ctrls.avgQLat                     14540.15                       # Average queueing delay per DRAM burst
system.mem_ctrls.avgBusLat                    5000.00                       # Average bus latency per DRAM burst
system.mem_ctrls.avgMemAccLat                33290.15                       # Average memory access latency per DRAM burst
system.mem_ctrls.numRdRetry                         0                       # Number of times read queue was full causing retry
system.mem_ctrls.numWrRetry                         0                       # Number of times write queue was full causing retry
system.mem_ctrls.readRowHits                   139672                       # Number of row buffer hits during reads
system.mem_ctrls.writeRowHits                   70818                       # Number of row buffer hits during writes
system.mem_ctrls.readRowHitRate                 67.34                       # Row buffer hit rate for reads
system.mem_ctrls.writeRowHitRate                60.40                       # Row buffer hit rate for writes
system.mem_ctrls.readPktSize::0                     0                       # Read request sizes (log2)
system.mem_ctrls.readPktSize::1                     0                       # Read request sizes (log2)
system.mem_ctrls.readPktSize::2                     0                       # Read request sizes (log2)
system.mem_ctrls.readPktSize::3                     0                       # Read request sizes (log2)
system.mem_ctrls.readPktSize::4                     0                       # Read request sizes (log2)
system.mem_ctrls.readPktSize::5                     0                       # Read request sizes (log2)
system.mem_ctrls.readPktSize::6                207447                       # Read request sizes (log2)
system.mem_ctrls.writePktSize::0                    0                       # Write request sizes (log2)
system.mem_ctrls.writePktSize::1                    0                       # Write request sizes (log2)
system.mem_ctrls.writePktSize::2                    0                       # Write request sizes (log2)
system.mem_ctrls.writePktSize::3                    0                       # Write request sizes (log2)
system.mem_ctrls.writePktSize::4                    0                       # Write request sizes (log2)
system.mem_ctrls.writePktSize::5                    0                       # Write request sizes (log2)
system.mem_ctrls.writePktSize::6               117256                       # Write request sizes (log2)
system.mem_ctrls.rdQLenPdf::0                  149286                       # What read queue length does an incoming req see
system.mem_ctrls.rdQLenPdf::1                   58113                       # What read queue length does an incoming req see
system.mem_ctrls.rdQLenPdf::2                       9                       # What read queue length does an incoming req see
system.mem_ctrls.rdQLenPdf::3                       0                       # What read queue length does an incoming req see
system.mem_ctrls.rdQLenPdf::4                       0                       # What read queue length does an incoming req see
system.mem_ctrls.rdQLenPdf::5                       0                       # What read queue length does an incoming req see
system.mem_ctrls.rdQLenPdf::6                       0                       # What read queue length does an incoming req see
system.mem_ctrls.rdQLenPdf::7                       0                       # What read queue length does an incoming req see
system.mem_ctrls.rdQLenPdf::8                       0                       # What read queue length does an incoming req see
system.mem_ctrls.rdQLenPdf::9                       0                       # What read queue length does an incoming req see
system.mem_ctrls.rdQLenPdf::10                      0                       # What read queue length does an incoming req see
system.mem_ctrls.rdQLenPdf::11                      0                       # What read queue length does an incoming req see
system.mem_ctrls.rdQLenPdf::12                      0                       # What read queue length does an incoming req see
system.mem_ctrls.rdQLenPdf::13                      0                       # What read queue length does an incoming req see
system.mem_ctrls.rdQLenPdf::14                      0                       # What read queue length does an incoming req see
system.mem_ctrls.rdQLenPdf::15                      0                       # What read queue length does an incoming req see
system.mem_ctrls.rdQLenPdf::16                      0                       # What read queue length does an incoming req see
system.mem_ctrls.rdQLenPdf::17                      0                       # What read queue length does an incoming req see
system.mem_ctrls.rdQLenPdf::18                      0                       # What read queue length does an incoming req see
system.mem_ctrls.rdQLenPdf::19                      0                       # What read queue length does an incoming req see
system.mem_ctrls.rdQLenPdf::20                      0                       # What read queue length does an incoming req see
system.mem_ctrls.rdQLenPdf::21                      0                       # What read queue length does an incoming req see
system.mem_ctrls.rdQLenPdf::22                      0                       # What read queue length does an incoming req see
system.mem_ctrls.rdQLenPdf::23                      0                       # What read queue length does an incoming req see
system.mem_ctrls.rdQLenPdf::24                      0                       # What read queue length does an incoming req see
system.mem_ctrls.rdQLenPdf::25                      0                       # What read queue length does an incoming req see
system.mem_ctrls.rdQLenPdf::26                      0                       # What read queue length does an incoming req see
system.mem_ctrls.rdQLenPdf::27                      0                       # What read queue length does an incoming req see
system.mem_ctrls.rdQLenPdf::28                      0                       # What read queue length does an incoming req see
system.mem_ctrls.rdQLenPdf::29                      0                       # What read queue length does an incoming req see
system.mem_ctrls.rdQLenPdf::30                      0                       # What read queue length does an incoming req see
system.mem_ctrls.rdQLenPdf::31                      0                       # What read queue length does an incoming req see
system.mem_ctrls.wrQLenPdf::0                       1                       # What write queue length does an incoming req see
system.mem_ctrls.wrQLenPdf::1                       1                       # What write queue length does an incoming req see
system.mem_ctrls.wrQLenPdf::2                       1                       # What write queue length does an incoming req see
system.mem_ctrls.wrQLenPdf::3                       1                       # What write queue length does an incoming req see
system.mem_ctrls.wrQLenPdf::4                       1                       # What write queue length does an incoming req see
system.mem_ctrls.wrQLenPdf::5                       1                       # What write queue length does an incoming req see
system.mem_ctrls.wrQLenPdf::6                       1                       # What write queue length does an incoming req see
system.mem_ctrls.wrQLenPdf::7                       1                       # What write queue length does an incoming req see
system.mem_ctrls.wrQLenPdf::8                       1                       # What write queue length does an incoming req see
system.mem_ctrls.wrQLenPdf::9                       1                       # What write queue length does an incoming req see
system.mem_ctrls.wrQLenPdf::10                      1                       # What write queue length does an incoming req see
system.mem_ctrls.wrQLenPdf::11                      1                       # What write queue length does an incoming req see
system.mem_ctrls.wrQLenPdf::12                      1                       # What write queue length does an incoming req see
system.mem_ctrls.wrQLenPdf::13                      1                       # What write queue length does an incoming req see
system.mem_ctrls.wrQLenPdf::14                      1                       # What write queue length does an incoming req see
system.mem_ctrls.wrQLenPdf::15                   2400                       # What write queue length does an incoming req see
system.mem_ctrls.wrQLenPdf::16                   2454                       # What write queue length does an incoming req see
system.mem_ctrls.wrQLenPdf::17                   5374                       # What write queue length does an incoming req see
system.mem_ctrls.wrQLenPdf::18                   7061                       # What write queue length does an incoming req see
system.mem_ctrls.wrQLenPdf::19                   7051                       # What write queue length does an incoming req see
system.mem_ctrls.wrQLenPdf::20                   7137                       # What write queue length does an incoming req see
system.mem_ctrls.wrQLenPdf::21                   7050                       # What write queue length does an incoming req see
system.mem_ctrls.wrQLenPdf::22                   7048                       # What write queue length does an incoming req see
system.mem_ctrls.wrQLenPdf::23                   7057                       # What write queue length does an incoming req see
system.mem_ctrls.wrQLenPdf::24                   7050                       # What write queue length does an incoming req see
system.mem_ctrls.wrQLenPdf::25                   7141                       # What write queue length does an incoming req see
system.mem_ctrls.wrQLenPdf::26                   7072                       # What write queue length does an incoming req see
system.mem_ctrls.wrQLenPdf::27                   7059                       # What write queue length does an incoming req see
system.mem_ctrls.wrQLenPdf::28                   7147                       # What write queue length does an incoming req see
system.mem_ctrls.wrQLenPdf::29                   7264                       # What write queue length does an incoming req see
system.mem_ctrls.wrQLenPdf::30                   7014                       # What write queue length does an incoming req see
system.mem_ctrls.wrQLenPdf::31                   7853                       # What write queue length does an incoming req see
system.mem_ctrls.wrQLenPdf::32                   7007                       # What write queue length does an incoming req see
system.mem_ctrls.wrQLenPdf::33                      2                       # What write queue length does an incoming req see
system.mem_ctrls.wrQLenPdf::34                      0                       # What write queue length does an incoming req see
system.mem_ctrls.wrQLenPdf::35                      0                       # What write queue length does an incoming req see
system.mem_ctrls.wrQLenPdf::36                      0                       # What write queue length does an incoming req see
system.mem_ctrls.wrQLenPdf::37                      0                       # What write queue length does an incoming req see
system.mem_ctrls.wrQLenPdf::38                      0                       # What write queue length does an incoming req see
system.mem_ctrls.wrQLenPdf::39                      0                       # What write queue length does an incoming req see
system.mem_ctrls.wrQLenPdf::40                      0                       # What write queue length does an incoming req see
system.mem_ctrls.wrQLenPdf::41                      0                       # What write queue length does an incoming req see
system.mem_ctrls.wrQLenPdf::42                      0                       # What write queue length does an incoming req see
system.mem_ctrls.wrQLenPdf::43                      0                       # What write queue length does an incoming req see
system.mem_ctrls.wrQLenPdf::44                      0                       # What write queue length does an incoming req see
system.mem_ctrls.wrQLenPdf::45                      0                       # What write queue length does an incoming req see
system.mem_ctrls.wrQLenPdf::46                      0                       # What write queue length does an incoming req see
system.mem_ctrls.wrQLenPdf::47                      0                       # What write queue length does an incoming req see
system.mem_ctrls.wrQLenPdf::48                      0                       # What write queue length does an incoming req see
system.mem_ctrls.wrQLenPdf::49                      0                       # What write queue length does an incoming req see
system.mem_ctrls.wrQLenPdf::50                      0                       # What write queue length does an incoming req see
system.mem_ctrls.wrQLenPdf::51                      0                       # What write queue length does an incoming req see
system.mem_ctrls.wrQLenPdf::52                      0                       # What write queue length does an incoming req see
system.mem_ctrls.wrQLenPdf::53                      0                       # What write queue length does an incoming req see
system.mem_ctrls.wrQLenPdf::54                      0                       # What write queue length does an incoming req see
system.mem_ctrls.wrQLenPdf::55                      0                       # What write queue length does an incoming req see
system.mem_ctrls.wrQLenPdf::56                      0                       # What write queue length does an incoming req see
system.mem_ctrls.wrQLenPdf::57                      0                       # What write queue length does an incoming req see
system.mem_ctrls.wrQLenPdf::58                      0                       # What write queue length does an incoming req see
system.mem_ctrls.wrQLenPdf::59                      0                       # What write queue length does an incoming req see
system.mem_ctrls.wrQLenPdf::60                      0                       # What write queue length does an incoming req see
system.mem_ctrls.wrQLenPdf::61                      0                       # What write queue length does an incoming req see
system.mem_ctrls.wrQLenPdf::62                      0                       # What write queue length does an incoming req see
system.mem_ctrls.wrQLenPdf::63                      0                       # What write queue length does an incoming req see
system.mem_ctrls.bytesPerActivate::samples       114153                       # Bytes accessed per row activation
system.mem_ctrls.bytesPerActivate::mean    182.011441                       # Bytes accessed per row activation
system.mem_ctrls.bytesPerActivate::gmean   107.591232                       # Bytes accessed per row activation
system.mem_ctrls.bytesPerActivate::stdev   247.930093                       # Bytes accessed per row activation
system.mem_ctrls.bytesPerActivate::0-127        77401     67.80%     67.80% # Bytes accessed per row activation
system.mem_ctrls.bytesPerActivate::128-255        15422     13.51%     81.31% # Bytes accessed per row activation
system.mem_ctrls.bytesPerActivate::256-383         2653      2.32%     83.64% # Bytes accessed per row activation
system.mem_ctrls.bytesPerActivate::384-511         1426      1.25%     84.89% # Bytes accessed per row activation
system.mem_ctrls.bytesPerActivate::512-639         9011      7.89%     92.78% # Bytes accessed per row activation
system.mem_ctrls.bytesPerActivate::640-767         1767      1.55%     94.33% # Bytes accessed per row activation
system.mem_ctrls.bytesPerActivate::768-895          452      0.40%     94.73% # Bytes accessed per row activation
system.mem_ctrls.bytesPerActivate::896-1023          395      0.35%     95.07% # Bytes accessed per row activation
system.mem_ctrls.bytesPerActivate::1024-1151         5626      4.93%    100.00% # Bytes accessed per row activation
system.mem_ctrls.bytesPerActivate::total       114153                       # Bytes accessed per row activation
system.mem_ctrls.rdPerTurnAround::samples         7007                       # Reads before turning the bus around for writes
system.mem_ctrls.rdPerTurnAround::mean      29.599258                       # Reads before turning the bus around for writes
system.mem_ctrls.rdPerTurnAround::gmean     23.394202                       # Reads before turning the bus around for writes
system.mem_ctrls.rdPerTurnAround::stdev     50.942858                       # Reads before turning the bus around for writes
system.mem_ctrls.rdPerTurnAround::0-127          6835     97.55%     97.55% # Reads before turning the bus around for writes
system.mem_ctrls.rdPerTurnAround::128-255           41      0.59%     98.13% # Reads before turning the bus around for writes
system.mem_ctrls.rdPerTurnAround::256-383          128      1.83%     99.96% # Reads before turning the bus around for writes
system.mem_ctrls.rdPerTurnAround::512-639            1      0.01%     99.97% # Reads before turning the bus around for writes
system.mem_ctrls.rdPerTurnAround::1664-1791            1      0.01%     99.99% # Reads before turning the bus around for writes
system.mem_ctrls.rdPerTurnAround::2432-2559            1      0.01%    100.00% # Reads before turning the bus around for writes
system.mem_ctrls.rdPerTurnAround::total          7007                       # Reads before turning the bus around for writes
system.mem_ctrls.wrPerTurnAround::samples         7007                       # Writes before turning the bus around for reads
system.mem_ctrls.wrPerTurnAround::mean      16.731269                       # Writes before turning the bus around for reads
[...]
system.cpu.icache.tags.occ_percent::total     0.724480                       # Average percentage of cache occupancy
system.cpu.icache.tags.occ_task_id_blocks::1024          427                       # Occupied blocks per task id
system.cpu.icache.tags.age_task_id_blocks_1024::4          427                       # Occupied blocks per task id
system.cpu.icache.tags.occ_task_id_percent::1024     0.833984                       # Percentage of cache occupancy per task id
system.cpu.icache.tags.tag_accesses          24324879                       # Number of tag accesses
system.cpu.icache.tags.data_accesses         24324879                       # Number of data accesses
system.cpu.dtb.walker.pwrStateResidencyTicks::UNDEFINED  87498808500                       # Cumulative time (in ticks) in various power states
system.cpu.dtb.stage2_mmu.stage2_tlb.walker.pwrStateResidencyTicks::UNDEFINED  87498808500                       # Cumulative time (in ticks) in various power states
system.cpu.dcache.pwrStateResidencyTicks::UNDEFINED  87498808500                       # Cumulative time (in ticks) in various power states
system.cpu.dcache.demand_hits::.cpu.data     56634617                       # number of demand (read+write) hits
system.cpu.dcache.demand_hits::total         56634617                       # number of demand (read+write) hits
system.cpu.dcache.overall_hits::.cpu.data     56634634                       # number of overall hits
system.cpu.dcache.overall_hits::total        56634634                       # number of overall hits
system.cpu.dcache.demand_misses::.cpu.data       840153                       # number of demand (read+write) misses
system.cpu.dcache.demand_misses::total         840153                       # number of demand (read+write) misses
system.cpu.dcache.overall_misses::.cpu.data       840168                       # number of overall misses
system.cpu.dcache.overall_misses::total        840168                       # number of overall misses
system.cpu.dcache.demand_miss_latency::.cpu.data  27076518500                       # number of demand (read+write) miss cycles
system.cpu.dcache.demand_miss_latency::total  27076518500                       # number of demand (read+write) miss cycles
system.cpu.dcache.overall_miss_latency::.cpu.data  27076518500                       # number of overall miss cycles
system.cpu.dcache.overall_miss_latency::total  27076518500                       # number of overall miss cycles
system.cpu.dcache.demand_accesses::.cpu.data     57474770                       # number of demand (read+write) accesses
system.cpu.dcache.demand_accesses::total     57474770                       # number of demand (read+write) accesses
system.cpu.dcache.overall_accesses::.cpu.data     57474802                       # number of overall (read+write) accesses
system.cpu.dcache.overall_accesses::total     57474802                       # number of overall (read+write) accesses
system.cpu.dcache.demand_miss_rate::.cpu.data     0.014618                       # miss rate for demand accesses
system.cpu.dcache.demand_miss_rate::total     0.014618                       # miss rate for demand accesses
system.cpu.dcache.overall_miss_rate::.cpu.data     0.014618                       # miss rate for overall accesses
system.cpu.dcache.overall_miss_rate::total     0.014618                       # miss rate for overall accesses
system.cpu.dcache.demand_avg_miss_latency::.cpu.data 32228.080481                       # average overall miss latency
system.cpu.dcache.demand_avg_miss_latency::total 32228.080481                       # average overall miss latency
system.cpu.dcache.overall_avg_miss_latency::.cpu.data 32227.505094                       # average overall miss latency
system.cpu.dcache.overall_avg_miss_latency::total 32227.505094                       # average overall miss latency
system.cpu.dcache.blocked_cycles::no_mshrs            0                       # number of cycles access was blocked
system.cpu.dcache.blocked_cycles::no_targets            0                       # number of cycles access was blocked
system.cpu.dcache.blocked::no_mshrs                 0                       # number of cycles access was blocked
system.cpu.dcache.blocked::no_targets               0                       # number of cycles access was blocked
system.cpu.dcache.avg_blocked_cycles::no_mshrs          nan                       # average number of cycles each access was blocked
system.cpu.dcache.avg_blocked_cycles::no_targets          nan                       # average number of cycles each access was blocked
system.cpu.dcache.writebacks::.writebacks       682175                       # number of writebacks
system.cpu.dcache.writebacks::total            682175                       # number of writebacks
system.cpu.dcache.demand_mshr_hits::.cpu.data        62515                       # number of demand (read+write) MSHR hits
system.cpu.dcache.demand_mshr_hits::total        62515                       # number of demand (read+write) MSHR hits
system.cpu.dcache.overall_mshr_hits::.cpu.data        62515                       # number of overall MSHR hits
system.cpu.dcache.overall_mshr_hits::total        62515                       # number of overall MSHR hits
system.cpu.dcache.demand_mshr_misses::.cpu.data       777638                       # number of demand (read+write) MSHR misses
system.cpu.dcache.demand_mshr_misses::total       777638                       # number of demand (read+write) MSHR misses
system.cpu.dcache.overall_mshr_misses::.cpu.data       777649                       # number of overall MSHR misses
system.cpu.dcache.overall_mshr_misses::total       777649                       # number of overall MSHR misses
system.cpu.dcache.demand_mshr_miss_latency::.cpu.data  24646899000                       # number of demand (read+write) MSHR miss cycles
system.cpu.dcache.demand_mshr_miss_latency::total  24646899000                       # number of demand (read+write) MSHR miss cycles
system.cpu.dcache.overall_mshr_miss_latency::.cpu.data  24647797500                       # number of overall MSHR miss cycles
system.cpu.dcache.overall_mshr_miss_latency::total  24647797500                       # number of overall MSHR miss cycles
system.cpu.dcache.demand_mshr_miss_rate::.cpu.data     0.013530                       # mshr miss rate for demand accesses
system.cpu.dcache.demand_mshr_miss_rate::total     0.013530                       # mshr miss rate for demand accesses
system.cpu.dcache.overall_mshr_miss_rate::.cpu.data     0.013530                       # mshr miss rate for overall accesses
system.cpu.dcache.overall_mshr_miss_rate::total     0.013530                       # mshr miss rate for overall accesses
system.cpu.dcache.demand_avg_mshr_miss_latency::.cpu.data 31694.566109                       # average overall mshr miss latency
system.cpu.dcache.demand_avg_mshr_miss_latency::total 31694.566109                       # average overall mshr miss latency
system.cpu.dcache.overall_avg_mshr_miss_latency::.cpu.data 31695.273189                       # average overall mshr miss latency
system.cpu.dcache.overall_avg_mshr_miss_latency::total 31695.273189                       # average overall mshr miss latency
system.cpu.dcache.replacements                 776626                       # number of replacements
system.cpu.dcache.ReadReq_hits::.cpu.data     44590375                       # number of ReadReq hits
system.cpu.dcache.ReadReq_hits::total        44590375                       # number of ReadReq hits
system.cpu.dcache.ReadReq_misses::.cpu.data       471821                       # number of ReadReq misses
system.cpu.dcache.ReadReq_misses::total        471821                       # number of ReadReq misses
system.cpu.dcache.ReadReq_miss_latency::.cpu.data  10667710500                       # number of ReadReq miss cycles
system.cpu.dcache.ReadReq_miss_latency::total  10667710500                       # number of ReadReq miss cycles
system.cpu.dcache.ReadReq_accesses::.cpu.data     45062196                       # number of ReadReq accesses(hits+misses)
system.cpu.dcache.ReadReq_accesses::total     45062196                       # number of ReadReq accesses(hits+misses)
system.cpu.dcache.ReadReq_miss_rate::.cpu.data     0.010470                       # miss rate for ReadReq accesses
system.cpu.dcache.ReadReq_miss_rate::total     0.010470                       # miss rate for ReadReq accesses
system.cpu.dcache.ReadReq_avg_miss_latency::.cpu.data 22609.655992                       # average ReadReq miss latency
system.cpu.dcache.ReadReq_avg_miss_latency::total 22609.655992                       # average ReadReq miss latency
system.cpu.dcache.ReadReq_mshr_hits::.cpu.data           46                       # number of ReadReq MSHR hits
system.cpu.dcache.ReadReq_mshr_hits::total           46                       # number of ReadReq MSHR hits
system.cpu.dcache.ReadReq_mshr_misses::.cpu.data       471775                       # number of ReadReq MSHR misses
system.cpu.dcache.ReadReq_mshr_misses::total       471775                       # number of ReadReq MSHR misses
system.cpu.dcache.ReadReq_mshr_miss_latency::.cpu.data  10192423000                       # number of ReadReq MSHR miss cycles
system.cpu.dcache.ReadReq_mshr_miss_latency::total  10192423000                       # number of ReadReq MSHR miss cycles
system.cpu.dcache.ReadReq_mshr_miss_rate::.cpu.data     0.010469                       # mshr miss rate for ReadReq accesses
system.cpu.dcache.ReadReq_mshr_miss_rate::total     0.010469                       # mshr miss rate for ReadReq accesses
system.cpu.dcache.ReadReq_avg_mshr_miss_latency::.cpu.data 21604.415240                       # average ReadReq mshr miss latency
system.cpu.dcache.ReadReq_avg_mshr_miss_latency::total 21604.415240                       # average ReadReq mshr miss latency
system.cpu.dcache.WriteReq_hits::.cpu.data     12044242                       # number of WriteReq hits
system.cpu.dcache.WriteReq_hits::total       12044242                       # number of WriteReq hits
system.cpu.dcache.WriteReq_misses::.cpu.data       368332                       # number of WriteReq misses
system.cpu.dcache.WriteReq_misses::total       368332                       # number of WriteReq misses
system.cpu.dcache.WriteReq_miss_latency::.cpu.data  16408808000                       # number of WriteReq miss cycles
system.cpu.dcache.WriteReq_miss_latency::total  16408808000                       # number of WriteReq miss cycles
system.cpu.dcache.WriteReq_accesses::.cpu.data     12412574                       # number of WriteReq accesses(hits+misses)
system.cpu.dcache.WriteReq_accesses::total     12412574                       # number of WriteReq accesses(hits+misses)
system.cpu.dcache.WriteReq_miss_rate::.cpu.data     0.029674                       # miss rate for WriteReq accesses
system.cpu.dcache.WriteReq_miss_rate::total     0.029674                       # miss rate for WriteReq accesses
system.cpu.dcache.WriteReq_avg_miss_latency::.cpu.data 44548.961263                       # average WriteReq miss latency
system.cpu.dcache.WriteReq_avg_miss_latency::total 44548.961263                       # average WriteReq miss latency
system.cpu.dcache.WriteReq_mshr_hits::.cpu.data        62469                       # number of WriteReq MSHR hits
system.cpu.dcache.WriteReq_mshr_hits::total        62469                       # number of WriteReq MSHR hits
system.cpu.dcache.WriteReq_mshr_misses::.cpu.data       305863                       # number of WriteReq MSHR misses
system.cpu.dcache.WriteReq_mshr_misses::total       305863                       # number of WriteReq MSHR misses
system.cpu.dcache.WriteReq_mshr_miss_latency::.cpu.data  14454476000                       # number of WriteReq MSHR miss cycles
system.cpu.dcache.WriteReq_mshr_miss_latency::total  14454476000                       # number of WriteReq MSHR miss cycles
system.cpu.dcache.WriteReq_mshr_miss_rate::.cpu.data     0.024641                       # mshr miss rate for WriteReq accesses
system.cpu.dcache.WriteReq_mshr_miss_rate::total     0.024641                       # mshr miss rate for WriteReq accesses
system.cpu.dcache.WriteReq_avg_mshr_miss_latency::.cpu.data 47258.007670                       # average WriteReq mshr miss latency
system.cpu.dcache.WriteReq_avg_mshr_miss_latency::total 47258.007670                       # average WriteReq mshr miss latency
system.cpu.dcache.SoftPFReq_hits::.cpu.data           17                       # number of SoftPFReq hits
system.cpu.dcache.SoftPFReq_hits::total            17                       # number of SoftPFReq hits
system.cpu.dcache.SoftPFReq_misses::.cpu.data           15                       # number of SoftPFReq misses
system.cpu.dcache.SoftPFReq_misses::total           15                       # number of SoftPFReq misses
system.cpu.dcache.SoftPFReq_accesses::.cpu.data           32                       # number of SoftPFReq accesses(hits+misses)
system.cpu.dcache.SoftPFReq_accesses::total           32                       # number of SoftPFReq accesses(hits+misses)
system.cpu.dcache.SoftPFReq_miss_rate::.cpu.data     0.468750                       # miss rate for SoftPFReq accesses
system.cpu.dcache.SoftPFReq_miss_rate::total     0.468750                       # miss rate for SoftPFReq accesses
system.cpu.dcache.SoftPFReq_mshr_misses::.cpu.data           11                       # number of SoftPFReq MSHR misses
system.cpu.dcache.SoftPFReq_mshr_misses::total           11                       # number of SoftPFReq MSHR misses
system.cpu.dcache.SoftPFReq_mshr_miss_latency::.cpu.data       898500                       # number of SoftPFReq MSHR miss cycles
system.cpu.dcache.SoftPFReq_mshr_miss_latency::total       898500                       # number of SoftPFReq MSHR miss cycles
system.cpu.dcache.SoftPFReq_mshr_miss_rate::.cpu.data     0.343750                       # mshr miss rate for SoftPFReq accesses
system.cpu.dcache.SoftPFReq_mshr_miss_rate::total     0.343750                       # mshr miss rate for SoftPFReq accesses
system.cpu.dcache.SoftPFReq_avg_mshr_miss_latency::.cpu.data 81681.818182                       # average SoftPFReq mshr miss latency
system.cpu.dcache.SoftPFReq_avg_mshr_miss_latency::total 81681.818182                       # average SoftPFReq mshr miss latency
system.cpu.dcache.LoadLockedReq_hits::.cpu.data           61                       # number of LoadLockedReq hits
system.cpu.dcache.LoadLockedReq_hits::total           61                       # number of LoadLockedReq hits
system.cpu.dcache.LoadLockedReq_misses::.cpu.data            1                       # number of LoadLockedReq misses
system.cpu.dcache.LoadLockedReq_misses::total            1                       # number of LoadLockedReq misses
system.cpu.dcache.LoadLockedReq_miss_latency::.cpu.data        72000                       # number of LoadLockedReq miss cycles
system.cpu.dcache.LoadLockedReq_miss_latency::total        72000                       # number of LoadLockedReq miss cycles
system.cpu.dcache.LoadLockedReq_accesses::.cpu.data           62                       # number of LoadLockedReq accesses(hits+misses)
system.cpu.dcache.LoadLockedReq_accesses::total           62                       # number of LoadLockedReq accesses(hits+misses)
system.cpu.dcache.LoadLockedReq_miss_rate::.cpu.data     0.016129                       # miss rate for LoadLockedReq accesses
system.cpu.dcache.LoadLockedReq_miss_rate::total     0.016129                       # miss rate for LoadLockedReq accesses
system.cpu.dcache.LoadLockedReq_avg_miss_latency::.cpu.data        72000                       # average LoadLockedReq miss latency
system.cpu.dcache.LoadLockedReq_avg_miss_latency::total        72000                       # average LoadLockedReq miss latency
system.cpu.dcache.LoadLockedReq_mshr_misses::.cpu.data            1                       # number of LoadLockedReq MSHR misses
system.cpu.dcache.LoadLockedReq_mshr_misses::total            1                       # number of LoadLockedReq MSHR misses
system.cpu.dcache.LoadLockedReq_mshr_miss_latency::.cpu.data        71000                       # number of LoadLockedReq MSHR miss cycles
system.cpu.dcache.LoadLockedReq_mshr_miss_latency::total        71000                       # number of LoadLockedReq MSHR miss cycles
system.cpu.dcache.LoadLockedReq_mshr_miss_rate::.cpu.data     0.016129                       # mshr miss rate for LoadLockedReq accesses
system.cpu.dcache.LoadLockedReq_mshr_miss_rate::total     0.016129                       # mshr miss rate for LoadLockedReq accesses
system.cpu.dcache.LoadLockedReq_avg_mshr_miss_latency::.cpu.data        71000                       # average LoadLockedReq mshr miss latency
system.cpu.dcache.LoadLockedReq_avg_mshr_miss_latency::total        71000                       # average LoadLockedReq mshr miss latency
system.cpu.dcache.StoreCondReq_hits::.cpu.data           62                       # number of StoreCondReq hits
system.cpu.dcache.StoreCondReq_hits::total           62                       # number of StoreCondReq hits
system.cpu.dcache.StoreCondReq_accesses::.cpu.data           62                       # number of StoreCondReq accesses(hits+misses)
system.cpu.dcache.StoreCondReq_accesses::total           62                       # number of StoreCondReq accesses(hits+misses)
system.cpu.dcache.tags.pwrStateResidencyTicks::UNDEFINED  87498808500                       # Cumulative time (in ticks) in various power states
system.cpu.dcache.tags.tagsinuse          1008.145814                       # Cycle average of tags in use
system.cpu.dcache.tags.total_refs            57412407                       # Total number of references to valid blocks.
system.cpu.dcache.tags.sampled_refs            777650                       # Sample count of references to valid blocks.
system.cpu.dcache.tags.avg_refs             73.828081                       # Average number of references to valid blocks.
system.cpu.dcache.tags.warmup_cycle            176500                       # Cycle when the warmup percentage was hit.
system.cpu.dcache.tags.occ_blocks::.cpu.data  1008.145814                       # Average occupied blocks per requestor
system.cpu.dcache.tags.occ_percent::.cpu.data     0.984517                       # Average percentage of cache occupancy
system.cpu.dcache.tags.occ_percent::total     0.984517                       # Average percentage of cache occupancy
system.cpu.dcache.tags.occ_task_id_blocks::1024         1024                       # Occupied blocks per task id
system.cpu.dcache.tags.age_task_id_blocks_1024::0           17                       # Occupied blocks per task id
system.cpu.dcache.tags.age_task_id_blocks_1024::1          204                       # Occupied blocks per task id
system.cpu.dcache.tags.age_task_id_blocks_1024::2          800                       # Occupied blocks per task id
system.cpu.dcache.tags.age_task_id_blocks_1024::3            2                       # Occupied blocks per task id
system.cpu.dcache.tags.age_task_id_blocks_1024::4            1                       # Occupied blocks per task id
system.cpu.dcache.tags.occ_task_id_percent::1024            1                       # Percentage of cache occupancy per task id
system.cpu.dcache.tags.tag_accesses         115727502                       # Number of tag accesses
system.cpu.dcache.tags.data_accesses        115727502                       # Number of data accesses
system.cpu.itb.walker.pwrStateResidencyTicks::UNDEFINED  87498808500                       # Cumulative time (in ticks) in various power states
system.cpu.itb.stage2_mmu.stage2_tlb.walker.pwrStateResidencyTicks::UNDEFINED  87498808500                       # Cumulative time (in ticks) in various power states

---------- End Simulation Statistics   ----------
