
---------- Begin Simulation Statistics ----------
final_tick                                 9226138626                       # Number of ticks from beginning of simulation (restored from checkpoints and never reset)
host_inst_rate                                 375812                       # Simulator instruction rate (inst/s)
host_mem_usage                                 696484                       # Number of bytes of host memory used
host_op_rate                                   379522                       # Simulator op (including micro ops) rate (op/s)
host_seconds                                    59.29                       # Real time elapsed on the host
host_tick_rate                              155602010                       # Simulator tick rate (ticks/s)
sim_freq                                 1000000000000                       # Frequency of simulated ticks
sim_insts                                    22283062                       # Number of instructions simulated
sim_ops                                      22503062                       # Number of ops (including micro ops) simulated
sim_seconds                                  0.009226                       # Number of seconds simulated
sim_ticks                                  9226138626                       # Number of ticks simulated
system.cpu.branchPred.BTBCorrect                    0                       # Number of correct BTB predictions (this stat may not work properly.
system.cpu.branchPred.BTBHitPct             90.182386                       # BTB Hit Percentage
system.cpu.branchPred.BTBHits                 1112930                       # Number of BTB hits
system.cpu.branchPred.BTBLookups              1234088                       # Number of BTB lookups
system.cpu.branchPred.RASInCorrect               4211                       # Number of incorrect RAS predictions.
system.cpu.branchPred.condIncorrect              7799                       # Number of conditional branches incorrect
system.cpu.branchPred.condPredicted           1207273                       # Number of conditional branches predicted
system.cpu.branchPred.indirectHits              15191                       # Number of indirect target hits.
system.cpu.branchPred.indirectLookups           24522                       # Number of indirect predictor lookups.
system.cpu.branchPred.indirectMisses             9331                       # Number of indirect misses.
system.cpu.branchPred.lookups                 1297661                       # Number of BP lookups
system.cpu.branchPred.usedRAS                   28877                       # Number of times the RAS was used to get a target.
system.cpu.branchPredindirectMispredicted         1078                       # Number of mispredicted indirect branches.
system.cpu.committedInsts                    22283062                       # Number of instructions committed
system.cpu.committedOps                      22503062                       # Number of ops (including micro ops) committed
system.cpu.cpi                               1.243371                       # CPI: cycles per instruction
system.cpu.discardedOps                         33287                       # Number of ops (including micro ops) which were discarded before commit
system.cpu.dtb.accesses                             0                       # DTB accesses
system.cpu.dtb.align_faults                         0                       # Number of TLB faults due to alignment restrictions
system.cpu.dtb.domain_faults                        0                       # Number of TLB faults due to domain restrictions
system.cpu.dtb.flush_entries                        0                       # Number of entries that have been flushed from TLB
system.cpu.dtb.flush_tlb                            0                       # Number of times complete TLB was flushed
system.cpu.dtb.flush_tlb_asid                       0                       # Number of times TLB was flushed by ASID
system.cpu.dtb.flush_tlb_mva                        0                       # Number of times TLB was flushed by MVA
system.cpu.dtb.flush_tlb_mva_asid                   0                       # Number of times TLB was flushed by MVA & ASID
system.cpu.dtb.hits                                 0                       # DTB hits
system.cpu.dtb.inst_accesses                        0                       # ITB inst accesses
system.cpu.dtb.inst_hits                            0                       # ITB inst hits
system.cpu.dtb.inst_misses                          0                       # ITB inst misses
system.cpu.dtb.misses                               0                       # DTB misses
system.cpu.dtb.perms_faults                         0                       # Number of TLB faults due to permissions restrictions
system.cpu.dtb.prefetch_faults                      0                       # Number of TLB faults due to prefetch
system.cpu.dtb.read_accesses                        0                       # DTB read accesses
system.cpu.dtb.read_hits                            0                       # DTB read hits
system.cpu.dtb.read_misses                          0                       # DTB read misses
system.cpu.dtb.stage2_mmu.stage2_tlb.accesses            0                       # DTB accesses
system.cpu.dtb.stage2_mmu.stage2_tlb.align_faults            0                       # Number of TLB faults due to alignment restrictions
system.cpu.dtb.stage2_mmu.stage2_tlb.domain_faults            0                       # Number of TLB faults due to domain restrictions
system.cpu.dtb.stage2_mmu.stage2_tlb.flush_entries            0                       # Number of entries that have been flushed from TLB
system.cpu.dtb.stage2_mmu.stage2_tlb.flush_tlb            0                       # Number of times complete TLB was flushed
system.cpu.dtb.stage2_mmu.stage2_tlb.flush_tlb_asid            0                       # Number of times TLB was flushed by ASID
system.cpu.dtb.stage2_mmu.stage2_tlb.flush_tlb_mva            0                       # Number of times TLB was flushed by MVA
system.cpu.dtb.stage2_mmu.stage2_tlb.flush_tlb_mva_asid            0                       # Number of times TLB was flushed by MVA & ASID
system.cpu.dtb.stage2_mmu.stage2_tlb.hits            0                       # DTB hits
system.cpu.dtb.stage2_mmu.stage2_tlb.inst_accesses            0                       # ITB inst accesses
system.cpu.dtb.stage2_mmu.stage2_tlb.inst_hits            0                       # ITB inst hits
system.cpu.dtb.stage2_mmu.stage2_tlb.inst_misses            0                       # ITB inst misses
system.cpu.dtb.stage2_mmu.stage2_tlb.misses            0                       # DTB misses
system.cpu.dtb.stage2_mmu.stage2_tlb.perms_faults            0                       # Number of TLB faults due to permissions restrictions
system.cpu.dtb.stage2_mmu.stage2_tlb.prefetch_faults            0                       # Number of TLB faults due to prefetch
system.cpu.dtb.stage2_mmu.stage2_tlb.read_accesses            0                       # DTB read accesses
system.cpu.dtb.stage2_mmu.stage2_tlb.read_hits            0                       # DTB read hits
system.cpu.dtb.stage2_mmu.stage2_tlb.read_misses            0                       # DTB read misses
system.cpu.dtb.stage2_mmu.stage2_tlb.walker.walkRequestOrigin_Requested::Data            0                       # Table walker requests started/completed, data/inst
system.cpu.dtb.stage2_mmu.stage2_tlb.walker.walkRequestOrigin_Requested::Inst            0                       # Table walker requests started/completed, data/inst
system.cpu.dtb.stage2_mmu.stage2_tlb.walker.walkRequestOrigin_Requested::total            0                       # Table walker requests started/completed, data/inst
system.cpu.dtb.stage2_mmu.stage2_tlb.walker.walkRequestOrigin_Completed::Data            0                       # Table walker requests started/completed, data/inst
system.cpu.dtb.stage2_mmu.stage2_tlb.walker.walkRequestOrigin_Completed::Inst            0                       # Table walker requests started/completed, data/inst
system.cpu.dtb.stage2_mmu.stage2_tlb.walker.walkRequestOrigin_Completed::total            0                       # Table walker requests started/completed, data/inst
system.cpu.dtb.stage2_mmu.stage2_tlb.walker.walkRequestOrigin::total            0                       # Table walker requests started/completed, data/inst
system.cpu.dtb.stage2_mmu.stage2_tlb.walker.walks            0                       # Table walker walks requested
system.cpu.dtb.stage2_mmu.stage2_tlb.write_accesses            0                       # DTB write accesses
system.cpu.dtb.stage2_mmu.stage2_tlb.write_hits            0                       # DTB write hits
system.cpu.dtb.stage2_mmu.stage2_tlb.write_misses            0                       # DTB write misses
system.cpu.dtb.walker.walkRequestOrigin_Requested::Data            0                       # Table walker requests started/completed, data/inst
system.cpu.dtb.walker.walkRequestOrigin_Requested::Inst            0                       # Table walker requests started/completed, data/inst
system.cpu.dtb.walker.walkRequestOrigin_Requested::total            0                       # Table walker requests started/completed, data/inst
system.cpu.dtb.walker.walkRequestOrigin_Completed::Data            0                       # Table walker requests started/completed, data/inst
system.cpu.dtb.walker.walkRequestOrigin_Completed::Inst            0                       # Table walker requests started/completed, data/inst
system.cpu.dtb.walker.walkRequestOrigin_Completed::total            0                       # Table walker requests started/completed, data/inst
system.cpu.dtb.walker.walkRequestOrigin::total            0                       # Table walker requests started/completed, data/inst
system.cpu.dtb.walker.walks                         0                       # Table walker walks requested
system.cpu.dtb.write_accesses                       0                       # DTB write accesses
system.cpu.dtb.write_hits                           0                       # DTB write hits
system.cpu.dtb.write_misses                         0                       # DTB write misses
system.cpu.fetch2.amo_instructions                  0                       # Number of memory atomic instructions successfully decoded
system.cpu.fetch2.fp_instructions                   0                       # Number of floating point instructions successfully decoded
system.cpu.fetch2.int_instructions           14794232                       # Number of integer instructions successfully decoded
system.cpu.fetch2.load_instructions           4195102                       # Number of memory load instructions successfully decoded
system.cpu.fetch2.store_instructions          2083738                       # Number of memory store instructions successfully decoded
system.cpu.fetch2.vec_instructions                  0                       # Number of SIMD instructions successfully decoded
system.cpu.idleCycles                           92175                       # Total number of cycles that the object has spent stopped
system.cpu.ipc                               0.804265                       # IPC: instructions per cycle
system.cpu.itb.accesses                             0                       # DTB accesses
system.cpu.itb.align_faults                         0                       # Number of TLB faults due to alignment restrictions
system.cpu.itb.domain_faults                        0                       # Number of TLB faults due to domain restrictions
system.cpu.itb.flush_entries                        0                       # Number of entries that have been flushed from TLB
system.cpu.itb.flush_tlb                            0                       # Number of times complete TLB was flushed
system.cpu.itb.flush_tlb_asid                       0                       # Number of times TLB was flushed by ASID
system.cpu.itb.flush_tlb_mva                        0                       # Number of times TLB was flushed by MVA
system.cpu.itb.flush_tlb_mva_asid                   0                       # Number of times TLB was flushed by MVA & ASID
system.cpu.itb.hits                                 0                       # DTB hits
system.cpu.itb.inst_accesses                        0                       # ITB inst accesses
system.cpu.itb.inst_hits                            0                       # ITB inst hits
system.cpu.itb.inst_misses                          0                       # ITB inst misses
system.cpu.itb.misses                               0                       # DTB misses
system.cpu.itb.perms_faults                         0                       # Number of TLB faults due to permissions restrictions
system.cpu.itb.prefetch_faults                      0                       # Number of TLB faults due to prefetch
system.cpu.itb.read_accesses                        0                       # DTB read accesses
system.cpu.itb.read_hits                            0                       # DTB read hits
system.cpu.itb.read_misses                          0                       # DTB read misses
system.cpu.itb.stage2_mmu.stage2_tlb.accesses            0                       # DTB accesses
system.cpu.itb.stage2_mmu.stage2_tlb.align_faults            0                       # Number of TLB faults due to alignment restrictions
system.cpu.itb.stage2_mmu.stage2_tlb.domain_faults            0                       # Number of TLB faults due to domain restrictions
system.cpu.itb.stage2_mmu.stage2_tlb.flush_entries            0                       # Number of entries that have been flushed from TLB
system.cpu.itb.stage2_mmu.stage2_tlb.flush_tlb            0                       # Number of times complete TLB was flushed
system.cpu.itb.stage2_mmu.stage2_tlb.flush_tlb_asid            0                       # Number of times TLB was flushed by ASID
system.cpu.itb.stage2_mmu.stage2_tlb.flush_tlb_mva            0                       # Number of times TLB was flushed by MVA
system.cpu.itb.stage2_mmu.stage2_tlb.flush_tlb_mva_asid            0                       # Number of times TLB was flushed by MVA & ASID
system.cpu.itb.stage2_mmu.stage2_tlb.hits            0                       # DTB hits
system.cpu.itb.stage2_mmu.stage2_tlb.inst_accesses            0                       # ITB inst accesses
system.cpu.itb.stage2_mmu.stage2_tlb.inst_hits            0                       # ITB inst hits
system.cpu.itb.stage2_mmu.stage2_tlb.inst_misses            0                       # ITB inst misses
system.cpu.itb.stage2_mmu.stage2_tlb.misses            0                       # DTB misses
system.cpu.itb.stage2_mmu.stage2_tlb.perms_faults            0                       # Number of TLB faults due to permissions restrictions
system.cpu.itb.stage2_mmu.stage2_tlb.prefetch_faults            0                       # Number of TLB faults due to prefetch
system.cpu.itb.stage2_mmu.stage2_tlb.read_accesses            0                       # DTB read accesses
system.cpu.itb.stage2_mmu.stage2_tlb.read_hits            0                       # DTB read hits
system.cpu.itb.stage2_mmu.stage2_tlb.read_misses            0                       # DTB read misses
system.cpu.itb.stage2_mmu.stage2_tlb.walker.walkRequestOrigin_Requested::Data            0                       # Table walker requests started/completed, data/inst
system.cpu.itb.stage2_mmu.stage2_tlb.walker.walkRequestOrigin_Requested::Inst            0                       # Table walker requests started/completed, data/inst
system.cpu.itb.stage2_mmu.stage2_tlb.walker.walkRequestOrigin_Requested::total            0                       # Table walker requests started/completed, data/inst
system.cpu.itb.stage2_mmu.stage2_tlb.walker.walkRequestOrigin_Completed::Data            0                       # Table walker requests started/completed, data/inst
system.cpu.itb.stage2_mmu.stage2_tlb.walker.walkRequestOrigin_Completed::Inst            0                       # Table walker requests started/completed, data/inst
system.cpu.itb.stage2_mmu.stage2_tlb.walker.walkRequestOrigin_Completed::total            0                       # Table walker requests started/completed, data/inst
system.cpu.itb.stage2_mmu.stage2_tlb.walker.walkRequestOrigin::total            0                       # Table walker requests started/completed, data/inst
system.cpu.itb.stage2_mmu.stage2_tlb.walker.walks            0                       # Table walker walks requested
system.cpu.itb.stage2_mmu.stage2_tlb.write_accesses            0                       # DTB write accesses
system.cpu.itb.stage2_mmu.stage2_tlb.write_hits            0                       # DTB write hits
system.cpu.itb.stage2_mmu.stage2_tlb.write_misses            0                       # DTB write misses
system.cpu.itb.walker.walkRequestOrigin_Requested::Data            0                       # Table walker requests started/completed, data/inst
system.cpu.itb.walker.walkRequestOrigin_Requested::Inst            0                       # Table walker requests started/completed, data/inst
system.cpu.itb.walker.walkRequestOrigin_Requested::total            0                       # Table walker requests started/completed, data/inst
system.cpu.itb.walker.walkRequestOrigin_Completed::Data            0                       # Table walker requests started/completed, data/inst
system.cpu.itb.walker.walkRequestOrigin_Completed::Inst            0                       # Table walker requests started/completed, data/inst
system.cpu.itb.walker.walkRequestOrigin_Completed::total            0                       # Table walker requests started/completed, data/inst
system.cpu.itb.walker.walkRequestOrigin::total            0                       # Table walker requests started/completed, data/inst
system.cpu.itb.walker.walks                         0                       # Table walker walks requested
system.cpu.itb.write_accesses                       0                       # DTB write accesses
system.cpu.itb.write_hits                           0                       # DTB write hits
system.cpu.itb.write_misses                         0                       # DTB write misses
system.cpu.numCycles                         27706122                       # number of cpu cycles simulated
system.cpu.numFetchSuspends                         0                       # Number of times Execute suspended instruction fetching
system.cpu.numWorkItemsCompleted                    0                       # number of work items this cpu completed
system.cpu.numWorkItemsStarted                      0                       # number of work items this cpu started
system.cpu.op_class_0::No_OpClass                   0      0.00%      0.00% # Class of committed instruction
system.cpu.op_class_0::IntAlu                14021229     62.31%     62.31% # Class of committed instruction
system.cpu.op_class_0::IntMult                2018787      8.97%     71.28% # Class of committed instruction
system.cpu.op_class_0::IntDiv                       0      0.00%     71.28% # Class of committed instruction
system.cpu.op_class_0::FloatAdd                     0      0.00%     71.28% # Class of committed instruction
system.cpu.op_class_0::FloatCmp                     0      0.00%     71.28% # Class of committed instruction
system.cpu.op_class_0::FloatCvt                     0      0.00%     71.28% # Class of committed instruction
system.cpu.op_class_0::FloatMult                    0      0.00%     71.28% # Class of committed instruction
system.cpu.op_class_0::FloatMultAcc                 0      0.00%     71.28% # Class of committed instruction
system.cpu.op_class_0::FloatDiv                     0      0.00%     71.28% # Class of committed instruction
system.cpu.op_class_0::FloatMisc                    0      0.00%     71.28% # Class of committed instruction
system.cpu.op_class_0::FloatSqrt                    0      0.00%     71.28% # Class of committed instruction
system.cpu.op_class_0::SimdAdd                      0      0.00%     71.28% # Class of committed instruction
system.cpu.op_class_0::SimdAddAcc                   0      0.00%     71.28% # Class of committed instruction
system.cpu.op_class_0::SimdAlu                      0      0.00%     71.28% # Class of committed instruction
system.cpu.op_class_0::SimdCmp                      0      0.00%     71.28% # Class of committed instruction
system.cpu.op_class_0::SimdCvt                      0      0.00%     71.28% # Class of committed instruction
system.cpu.op_class_0::SimdMisc                     0      0.00%     71.28% # Class of committed instruction
system.cpu.op_class_0::SimdMult                     0      0.00%     71.28% # Class of committed instruction
system.cpu.op_class_0::SimdMultAcc                  0      0.00%     71.28% # Class of committed instruction
system.cpu.op_class_0::SimdShift                    0      0.00%     71.28% # Class of committed instruction
system.cpu.op_class_0::SimdShiftAcc                 0      0.00%     71.28% # Class of committed instruction
system.cpu.op_class_0::SimdDiv                      0      0.00%     71.28% # Class of committed instruction
system.cpu.op_class_0::SimdSqrt                     0      0.00%     71.28% # Class of committed instruction
system.cpu.op_class_0::SimdFloatAdd                 0      0.00%     71.28% # Class of committed instruction
system.cpu.op_class_0::SimdFloatAlu                 0      0.00%     71.28% # Class of committed instruction
system.cpu.op_class_0::SimdFloatCmp                 0      0.00%     71.28% # Class of committed instruction
system.cpu.op_class_0::SimdFloatCvt                 0      0.00%     71.28% # Class of committed instruction
system.cpu.op_class_0::SimdFloatDiv                 0      0.00%     71.28% # Class of committed instruction
system.cpu.op_class_0::SimdFloatMisc                0      0.00%     71.28% # Class of committed instruction
system.cpu.op_class_0::SimdFloatMult                0      0.00%     71.28% # Class of committed instruction
system.cpu.op_class_0::SimdFloatMultAcc             0      0.00%     71.28% # Class of committed instruction
system.cpu.op_class_0::SimdFloatSqrt                0      0.00%     71.28% # Class of committed instruction
system.cpu.op_class_0::SimdReduceAdd                0      0.00%     71.28% # Class of committed instruction
system.cpu.op_class_0::SimdReduceAlu                0      0.00%     71.28% # Class of committed instruction
system.cpu.op_class_0::SimdReduceCmp                0      0.00%     71.28% # Class of committed instruction
system.cpu.op_class_0::SimdFloatReduceAdd            0      0.00%     71.28% # Class of committed instruction
system.cpu.op_class_0::SimdFloatReduceCmp            0      0.00%     71.28% # Class of committed instruction
system.cpu.op_class_0::SimdAes                      0      0.00%     71.28% # Class of committed instruction
system.cpu.op_class_0::SimdAesMix                   0      0.00%     71.28% # Class of committed instruction
system.cpu.op_class_0::SimdSha1Hash                 0      0.00%     71.28% # Class of committed instruction
system.cpu.op_class_0::SimdSha1Hash2                0      0.00%     71.28% # Class of committed instruction
system.cpu.op_class_0::SimdSha256Hash               0      0.00%     71.28% # Class of committed instruction
system.cpu.op_class_0::SimdSha256Hash2              0      0.00%     71.28% # Class of committed instruction
system.cpu.op_class_0::SimdShaSigma2                0      0.00%     71.28% # Class of committed instruction
system.cpu.op_class_0::SimdShaSigma3                0      0.00%     71.28% # Class of committed instruction
system.cpu.op_class_0::SimdPredAlu                  0      0.00%     71.28% # Class of committed instruction
system.cpu.op_class_0::MemRead                4261787     18.94%     90.22% # Class of committed instruction
system.cpu.op_class_0::MemWrite               2201259      9.78%    100.00% # Class of committed instruction
system.cpu.op_class_0::FloatMemRead                 0      0.00%    100.00% # Class of committed instruction
system.cpu.op_class_0::FloatMemWrite                0      0.00%    100.00% # Class of committed instruction
system.cpu.op_class_0::IprAccess                    0      0.00%    100.00% # Class of committed instruction
system.cpu.op_class_0::InstPrefetch                 0      0.00%    100.00% # Class of committed instruction
system.cpu.op_class_0::total                 22503062                       # Class of committed instruction
system.cpu.tickCycles                        27613947                       # Number of cycles that the object actually ticked
system.cpu.workload.numSyscalls                  1012                       # Number of system calls
system.membus.snoop_filter.hit_multi_requests            1                       # Number of requests hitting in the snoop filter with multiple (>1) holders of the requested data.
system.membus.snoop_filter.hit_multi_snoops            0                       # Number of snoops hitting in the snoop filter with multiple (>1) holders of the requested data.
system.membus.snoop_filter.hit_single_requests          104                       # Number of requests hitting in the snoop filter with a single holder of the requested data.
system.membus.snoop_filter.hit_single_snoops            0                       # Number of snoops hitting in the snoop filter with a single holder of the requested data.
system.membus.snoop_filter.tot_requests           688                       # Total number of requests made to the snoop filter.
system.membus.snoop_filter.tot_snoops               0                       # Total number of snoops made to the snoop filter.
system.membus.pwrStateResidencyTicks::UNDEFINED   9226138626                       # Cumulative time (in ticks) in various power states
system.membus.trans_dist::ReadResp                489                       # Transaction distribution
system.membus.trans_dist::WritebackClean           84                       # Transaction distribution
system.membus.trans_dist::ReadExReq               115                       # Transaction distribution
system.membus.trans_dist::ReadExResp              115                       # Transaction distribution
system.membus.trans_dist::ReadCleanReq            405                       # Transaction distribution
system.membus.trans_dist::ReadSharedReq            84                       # Transaction distribution
system.membus.pkt_count_system.cpu.icache.mem_side::system.mem_ctrls.port          894                       # Packet count per connected master and slave (bytes)
system.membus.pkt_count_system.cpu.dcache.mem_side::system.mem_ctrls.port          398                       # Packet count per connected master and slave (bytes)
system.membus.pkt_count::total                   1292                       # Packet count per connected master and slave (bytes)
system.membus.pkt_size_system.cpu.icache.mem_side::system.mem_ctrls.port        31296                       # Cumulative packet size per connected master and slave (bytes)
system.membus.pkt_size_system.cpu.dcache.mem_side::system.mem_ctrls.port        12736                       # Cumulative packet size per connected master and slave (bytes)
system.membus.pkt_size::total                   44032                       # Cumulative packet size per connected master and slave (bytes)
system.membus.snoops                                0                       # Total snoops (count)
system.membus.snoopTraffic                          0                       # Total snoop traffic (bytes)
system.membus.snoop_fanout::samples               604                       # Request fanout histogram
system.membus.snoop_fanout::mean             0.034768                       # Request fanout histogram
system.membus.snoop_fanout::stdev            0.183344                       # Request fanout histogram
system.membus.snoop_fanout::underflows              0      0.00%      0.00% # Request fanout histogram
system.membus.snoop_fanout::0                     583     96.52%     96.52% # Request fanout histogram
system.membus.snoop_fanout::1                      21      3.48%    100.00% # Request fanout histogram
system.membus.snoop_fanout::2                       0      0.00%    100.00% # Request fanout histogram
system.membus.snoop_fanout::overflows               0      0.00%    100.00% # Request fanout histogram
system.membus.snoop_fanout::min_value               0                       # Request fanout histogram
system.membus.snoop_fanout::max_value               1                       # Request fanout histogram
system.membus.snoop_fanout::total                 604                       # Request fanout histogram
system.membus.reqLayer0.occupancy             1336697                       # Layer occupancy (ticks)
system.membus.reqLayer0.utilization               0.0                       # Layer utilization (%)
system.membus.respLayer1.occupancy            2149739                       # Layer occupancy (ticks)
system.membus.respLayer1.utilization              0.0                       # Layer utilization (%)
system.membus.respLayer2.occupancy            1063616                       # Layer occupancy (ticks)
system.membus.respLayer2.utilization              0.0                       # Layer utilization (%)
system.voltage_domain.voltage                       1                       # Voltage in Volts
system.clk_domain.clock                          1000                       # Clock period in ticks
system.cpu_voltage_domain.voltage                   1                       # Voltage in Volts
system.mem_ctrls.pwrStateResidencyTicks::UNDEFINED   9226138626                       # Cumulative time (in ticks) in various power states
system.mem_ctrls.bytes_read::.cpu.inst          25920                       # Number of bytes read from this memory
system.mem_ctrls.bytes_read::.cpu.data          12736                       # Number of bytes read from this memory
system.mem_ctrls.bytes_read::total              38656                       # Number of bytes read from this memory
system.mem_ctrls.bytes_inst_read::.cpu.inst        25920                       # Number of instructions bytes read from this memory
system.mem_ctrls.bytes_inst_read::total         25920                       # Number of instructions bytes read from this memory
system.mem_ctrls.num_reads::.cpu.inst             405                       # Number of read requests responded to by this memory
system.mem_ctrls.num_reads::.cpu.data             199                       # Number of read requests responded to by this memory
system.mem_ctrls.num_reads::total                 604                       # Number of read requests responded to by this memory
system.mem_ctrls.bw_read::.cpu.inst           2809409                       # Total read bandwidth from this memory (bytes/s)
system.mem_ctrls.bw_read::.cpu.data           1380426                       # Total read bandwidth from this memory (bytes/s)
system.mem_ctrls.bw_read::total               4189835                       # Total read bandwidth from this memory (bytes/s)
system.mem_ctrls.bw_inst_read::.cpu.inst      2809409                       # Instruction read bandwidth from this memory (bytes/s)
system.mem_ctrls.bw_inst_read::total          2809409                       # Instruction read bandwidth from this memory (bytes/s)
system.mem_ctrls.bw_total::.cpu.inst          2809409                       # Total bandwidth to/from this memory (bytes/s)
system.mem_ctrls.bw_total::.cpu.data          1380426                       # Total bandwidth to/from this memory (bytes/s)
system.mem_ctrls.bw_total::total              4189835                       # Total bandwidth to/from this memory (bytes/s)
system.mem_ctrls.avgPriority_.writebacks::samples        79.00                       # Average QoS priority value for accepted requests
system.mem_ctrls.avgPriority_.cpu.inst::samples       388.00                       # Average QoS priority value for accepted requests
system.mem_ctrls.avgPriority_.cpu.data::samples       199.00                       # Average QoS priority value for accepted requests
system.mem_ctrls.priorityMinLatency      0.000000018750                       # per QoS priority minimum request to response latency (s)
system.mem_ctrls.priorityMaxLatency      0.018424829954                       # per QoS priority maximum request to response latency (s)
system.mem_ctrls.numReadWriteTurnArounds            3                       # Number of turnarounds from READ to WRITE
system.mem_ctrls.numWriteReadTurnArounds            3                       # Number of turnarounds from WRITE to READ
system.mem_ctrls.numStayReadState                3619                       # Number of times bus staying in READ state
system.mem_ctrls.numStayWriteState                 45                       # Number of times bus staying in WRITE state
system.mem_ctrls.readReqs                         604                       # Number of read requests accepted
system.mem_ctrls.writeReqs                         83                       # Number of write requests accepted
system.mem_ctrls.readBursts                       604                       # Number of DRAM read bursts, including those serviced by the write queue
system.mem_ctrls.writeBursts                       83                       # Number of DRAM write bursts, including those merged in the write queue
system.mem_ctrls.servicedByWrQ                     17                       # Number of DRAM read bursts serviced by the write queue
system.mem_ctrls.mergedWrBursts                     4                       # Number of DRAM write bursts merged with an existing one
system.mem_ctrls.neitherReadNorWriteReqs            0                       # Number of requests that are neither read nor write
system.mem_ctrls.perBankRdBursts::0                52                       # Per bank write bursts
system.mem_ctrls.perBankRdBursts::1                 9                       # Per bank write bursts
system.mem_ctrls.perBankRdBursts::2                30                       # Per bank write bursts
system.mem_ctrls.perBankRdBursts::3                44                       # Per bank write bursts
system.mem_ctrls.perBankRdBursts::4                42                       # Per bank write bursts
system.mem_ctrls.perBankRdBursts::5                51                       # Per bank write bursts
system.mem_ctrls.perBankRdBursts::6                26                       # Per bank write bursts
system.mem_ctrls.perBankRdBursts::7                19                       # Per bank write bursts
system.mem_ctrls.perBankRdBursts::8                39                       # Per bank write bursts
system.mem_ctrls.perBankRdBursts::9                53                       # Per bank write bursts
system.mem_ctrls.perBankRdBursts::10                4                       # Per bank write bursts
system.mem_ctrls.perBankRdBursts::11                2                       # Per bank write bursts
system.mem_ctrls.perBankRdBursts::12                4                       # Per bank write bursts
system.mem_ctrls.perBankRdBursts::13               66                       # Per bank write bursts
system.mem_ctrls.perBankRdBursts::14               74                       # Per bank write bursts
system.mem_ctrls.perBankRdBursts::15               72                       # Per bank write bursts
system.mem_ctrls.perBankWrBursts::0                12                       # Per bank write bursts
system.mem_ctrls.perBankWrBursts::1                 0                       # Per bank write bursts
system.mem_ctrls.perBankWrBursts::2                 4                       # Per bank write bursts
system.mem_ctrls.perBankWrBursts::3                 1                       # Per bank write bursts
system.mem_ctrls.perBankWrBursts::4                 3                       # Per bank write bursts
system.mem_ctrls.perBankWrBursts::5                17                       # Per bank write bursts
system.mem_ctrls.perBankWrBursts::6                 5                       # Per bank write bursts
system.mem_ctrls.perBankWrBursts::7                 2                       # Per bank write bursts
system.mem_ctrls.perBankWrBursts::8                 2                       # Per bank write bursts
system.mem_ctrls.perBankWrBursts::9                 2                       # Per bank write bursts
system.mem_ctrls.perBankWrBursts::10                0                       # Per bank write bursts
system.mem_ctrls.perBankWrBursts::11                0                       # Per bank write bursts
system.mem_ctrls.perBankWrBursts::12                0                       # Per bank write bursts
system.mem_ctrls.perBankWrBursts::13                0                       # Per bank write bursts
system.mem_ctrls.perBankWrBursts::14                0                       # Per bank write bursts
system.mem_ctrls.perBankWrBursts::15                0                       # Per bank write bursts
system.mem_ctrls.avgRdQLen                       1.00                       # Average read queue length when enqueuing
system.mem_ctrls.avgWrQLen                      20.62                       # Average write queue length when enqueuing
system.mem_ctrls.totQLat                      3805192                       # Total ticks spent queuing
system.mem_ctrls.totBusLat                    2935000                       # Total ticks spent in databus transfers
system.mem_ctrls.totMemAccLat                14811442                       # Total ticks spent from burst creation until serviced by the DRAM
system.mem_ctrls.avgQLat                      6482.44                       # Average queueing delay per DRAM burst
system.mem_ctrls.avgBusLat                    5000.00                       # Average bus latency per DRAM burst
system.mem_ctrls.avgMemAccLat                25232.44                       # Average memory access latency per DRAM burst
system.mem_ctrls.numRdRetry                         0                       # Number of times read queue was full causing retry
system.mem_ctrls.numWrRetry                         0                       # Number of times write queue was full causing retry
system.mem_ctrls.readRowHits                      484                       # Number of row buffer hits during reads
system.mem_ctrls.writeRowHits                      33                       # Number of row buffer hits during writes
system.mem_ctrls.readRowHitRate                 82.45                       # Row buffer hit rate for reads
system.mem_ctrls.writeRowHitRate                41.77                       # Row buffer hit rate for writes
system.mem_ctrls.readPktSize::0                     0                       # Read request sizes (log2)
system.mem_ctrls.readPktSize::1                     0                       # Read request sizes (log2)
system.mem_ctrls.readPktSize::2                     0                       # Read request sizes (log2)
system.mem_ctrls.readPktSize::3                     0                       # Read request sizes (log2)
system.mem_ctrls.readPktSize::4                     0                       # Read request sizes (log2)
system.mem_ctrls.readPktSize::5                     0                       # Read request sizes (log2)
system.mem_ctrls.readPktSize::6                   604                       # Read request sizes (log2)
system.mem_ctrls.writePktSize::0                    0                       # Write request sizes (log2)
system.mem_ctrls.writePktSize::1                    0                       # Write request sizes (log2)
system.mem_ctrls.writePktSize::2                    0                       # Write request sizes (log2)
system.mem_ctrls.writePktSize::3                    0                       # Write request sizes (log2)
system.mem_ctrls.writePktSize::4                    0                       # Write request sizes (log2)
system.mem_ctrls.writePktSize::5                    0                       # Write request sizes (log2)
system.mem_ctrls.writePktSize::6                   83                       # Write request sizes (log2)
system.mem_ctrls.rdQLenPdf::0                     500                       # What read queue length does an incoming req see
system.mem_ctrls.rdQLenPdf::1                      78                       # What read queue length does an incoming req see
system.mem_ctrls.rdQLenPdf::2                       9                       # What read queue length does an incoming req see
system.mem_ctrls.rdQLenPdf::3                       0                       # What read queue length does an incoming req see
system.mem_ctrls.rdQLenPdf::4                       0                       # What read queue length does an incoming req see
system.mem_ctrls.rdQLenPdf::5                       0                       # What read queue length does an incoming req see
system.mem_ctrls.rdQLenPdf::6                       0                       # What read queue length does an incoming req see
system.mem_ctrls.rdQLenPdf::7                       0                       # What read queue length does an incoming req see
system.mem_ctrls.rdQLenPdf::8                       0                       # What read queue length does an incoming req see
system.mem_ctrls.rdQLenPdf::9                       0                       # What read queue length does an incoming req see
system.mem_ctrls.rdQLenPdf::10                      0                       # What read queue length does an incoming req see
system.mem_ctrls.rdQLenPdf::11                      0                       # What read queue length does an incoming req see
system.mem_ctrls.rdQLenPdf::12                      0                       # What read queue length does an incoming req see
system.mem_ctrls.rdQLenPdf::13                      0                       # What read queue length does an incoming req see
system.mem_ctrls.rdQLenPdf::14                      0                       # What read queue length does an incoming req see
system.mem_ctrls.rdQLenPdf::15                      0                       # What read queue length does an incoming req see
system.mem_ctrls.rdQLenPdf::16                      0                       # What read queue length does an incoming req see
system.mem_ctrls.rdQLenPdf::17                      0                       # What read queue length does an incoming req see
system.mem_ctrls.rdQLenPdf::18                      0                       # What read queue length does an incoming req see
system.mem_ctrls.rdQLenPdf::19                      0                       # What read queue length does an incoming req see
system.mem_ctrls.rdQLenPdf::20                      0                       # What read queue length does an incoming req see
system.mem_ctrls.rdQLenPdf::21                      0                       # What read queue length does an incoming req see
system.mem_ctrls.rdQLenPdf::22                      0                       # What read queue length does an incoming req see
system.mem_ctrls.rdQLenPdf::23                      0                       # What read queue length does an incoming req see
system.mem_ctrls.rdQLenPdf::24                      0                       # What read queue length does an incoming req see
system.mem_ctrls.rdQLenPdf::25                      0                       # What read queue length does an incoming req see
system.mem_ctrls.rdQLenPdf::26                      0                       # What read queue length does an incoming req see
system.mem_ctrls.rdQLenPdf::27                      0                       # What read queue length does an incoming req see
system.mem_ctrls.rdQLenPdf::28                      0                       # What read queue length does an incoming req see
system.mem_ctrls.rdQLenPdf::29                      0                       # What read queue length does an incoming req see
system.mem_ctrls.rdQLenPdf::30                      0                       # What read queue length does an incoming req see
system.mem_ctrls.rdQLenPdf::31                      0                       # What read queue length does an incoming req see
system.mem_ctrls.wrQLenPdf::0                       1                       # What write queue length does an incoming req see
system.mem_ctrls.wrQLenPdf::1                       1                       # What write queue length does an incoming req see
system.mem_ctrls.wrQLenPdf::2                       1                       # What write queue length does an incoming req see
system.mem_ctrls.wrQLenPdf::3                       1                       # What write queue length does an incoming req see
system.mem_ctrls.wrQLenPdf::4                       1                       # What write queue length does an incoming req see
system.mem_ctrls.wrQLenPdf::5                       1                       # What write queue length does an incoming req see
system.mem_ctrls.wrQLenPdf::6                       1                       # What write queue length does an incoming req see
system.mem_ctrls.wrQLenPdf::7                       1                       # What write queue length does an incoming req see
system.mem_ctrls.wrQLenPdf::8                       1                       # What write queue length does an incoming req see
system.mem_ctrls.wrQLenPdf::9                       1                       # What write queue length does an incoming req see
system.mem_ctrls.wrQLenPdf::10                      1                       # What write queue length does an incoming req see
system.mem_ctrls.wrQLenPdf::11                      1                       # What write queue length does an incoming req see
system.mem_ctrls.wrQLenPdf::12                      1                       # What write queue length does an incoming req see
system.mem_ctrls.wrQLenPdf::13                      1                       # What write queue length does an incoming req see
system.mem_ctrls.wrQLenPdf::14                      1                       # What write queue length does an incoming req see
system.mem_ctrls.wrQLenPdf::15                      1                       # What write queue length does an incoming req see
system.mem_ctrls.wrQLenPdf::16                      1                       # What write queue length does an incoming req see
system.mem_ctrls.wrQLenPdf::17                      4                       # What write queue length does an incoming req see
system.mem_ctrls.wrQLenPdf::18                      4                       # What write queue length does an incoming req see
system.mem_ctrls.wrQLenPdf::19                      4                       # What write queue length does an incoming req see
system.mem_ctrls.wrQLenPdf::20                      4                       # What write queue length does an incoming req see
system.mem_ctrls.wrQLenPdf::21                      4                       # What write queue length does an incoming req see
system.mem_ctrls.wrQLenPdf::22                      4                       # What write queue length does an incoming req see
system.mem_ctrls.wrQLenPdf::23                      4                       # What write queue length does an incoming req see
system.mem_ctrls.wrQLenPdf::24                      4                       # What write queue length does an incoming req see
system.mem_ctrls.wrQLenPdf::25                      4                       # What write queue length does an incoming req see
system.mem_ctrls.wrQLenPdf::26                      4                       # What write queue length does an incoming req see
system.mem_ctrls.wrQLenPdf::27                      4                       # What write queue length does an incoming req see
system.mem_ctrls.wrQLenPdf::28                      4                       # What write queue length does an incoming req see
system.mem_ctrls.wrQLenPdf::29                      4                       # What write queue length does an incoming req see
system.mem_ctrls.wrQLenPdf::30                      4                       # What write queue length does an incoming req see
system.mem_ctrls.wrQLenPdf::31                      3                       # What write queue length does an incoming req see
system.mem_ctrls.wrQLenPdf::32                      3                       # What write queue length does an incoming req see
system.mem_ctrls.wrQLenPdf::33                      0                       # What write queue length does an incoming req see
system.mem_ctrls.wrQLenPdf::34                      0                       # What write queue length does an incoming req see
system.mem_ctrls.wrQLenPdf::35                      0                       # What write queue length does an incoming req see
system.mem_ctrls.wrQLenPdf::36                      0                       # What write queue length does an incoming req see
system.mem_ctrls.wrQLenPdf::37                      0                       # What write queue length does an incoming req see
system.mem_ctrls.wrQLenPdf::38                      0                       # What write queue length does an incoming req see
system.mem_ctrls.wrQLenPdf::39                      0                       # What write queue length does an incoming req see
system.mem_ctrls.wrQLenPdf::40                      0                       # What write queue length does an incoming req see
system.mem_ctrls.wrQLenPdf::41                      0                       # What write queue length does an incoming req see
system.mem_ctrls.wrQLenPdf::42                      0                       # What write queue length does an incoming req see
system.mem_ctrls.wrQLenPdf::43                      0                       # What write queue length does an incoming req see
system.mem_ctrls.wrQLenPdf::44                      0                       # What write queue length does an incoming req see
system.mem_ctrls.wrQLenPdf::45                      0                       # What write queue length does an incoming req see
system.mem_ctrls.wrQLenPdf::46                      0                       # What write queue length does an incoming req see
system.mem_ctrls.wrQLenPdf::47                      0                       # What write queue length does an incoming req see
system.mem_ctrls.wrQLenPdf::48                      0                       # What write queue length does an incoming req see
system.mem_ctrls.wrQLenPdf::49                      0                       # What write queue length does an incoming req see
system.mem_ctrls.wrQLenPdf::50                      0                       # What write queue length does an incoming req see
system.mem_ctrls.wrQLenPdf::51                      0                       # What write queue length does an incoming req see
system.mem_ctrls.wrQLenPdf::52                      0                       # What write queue length does an incoming req see
system.mem_ctrls.wrQLenPdf::53                      0                       # What write queue length does an incoming req see
system.mem_ctrls.wrQLenPdf::54                      0                       # What write queue length does an incoming req see
system.mem_ctrls.wrQLenPdf::55                      0                       # What write queue length does an incoming req see
system.mem_ctrls.wrQLenPdf::56                      0                       # What write queue length does an incoming req see
system.mem_ctrls.wrQLenPdf::57                      0                       # What write queue length does an incoming req see
system.mem_ctrls.wrQLenPdf::58                      0                       # What write queue length does an incoming req see
system.mem_ctrls.wrQLenPdf::59                      0                       # What write queue length does an incoming req see
system.mem_ctrls.wrQLenPdf::60                      0                       # What write queue length does an incoming req see
system.mem_ctrls.wrQLenPdf::61                      0                       # What write queue length does an incoming req see
system.mem_ctrls.wrQLenPdf::62                      0                       # What write queue length does an incoming req see
system.mem_ctrls.wrQLenPdf::63                      0                       # What write queue length does an incoming req see
system.mem_ctrls.bytesPerActivate::samples          108                       # Bytes accessed per row activation
system.mem_ctrls.bytesPerActivate::mean    356.148148                       # Bytes accessed per row activation
system.mem_ctrls.bytesPerActivate::gmean   240.341592                       # Bytes accessed per row activation
system.mem_ctrls.bytesPerActivate::stdev   310.130959                       # Bytes accessed per row activation
system.mem_ctrls.bytesPerActivate::0-127           21     19.44%     19.44% # Bytes accessed per row activation
system.mem_ctrls.bytesPerActivate::128-255           32     29.63%     49.07% # Bytes accessed per row activation
system.mem_ctrls.bytesPerActivate::256-383           17     15.74%     64.81% # Bytes accessed per row activation
system.mem_ctrls.bytesPerActivate::384-511            8      7.41%     72.22% # Bytes accessed per row activation
system.mem_ctrls.bytesPerActivate::512-639            5      4.63%     76.85% # Bytes accessed per row activation
system.mem_ctrls.bytesPerActivate::640-767            9      8.33%     85.19% # Bytes accessed per row activation
system.mem_ctrls.bytesPerActivate::768-895            4      3.70%     88.89% # Bytes accessed per row activation
system.mem_ctrls.bytesPerActivate::896-1023            1      0.93%     89.81% # Bytes accessed per row activation
system.mem_ctrls.bytesPerActivate::1024-1151           11     10.19%    100.00% # Bytes accessed per row activation
system.mem_ctrls.bytesPerActivate::total          108                       # Bytes accessed per row activation
system.mem_ctrls.rdPerTurnAround::samples            3                       # Reads before turning the bus around for writes
system.mem_ctrls.rdPerTurnAround::mean     183.666667                       # Reads before turning the bus around for writes
system.mem_ctrls.rdPerTurnAround::gmean    113.311953                       # Reads before turning the bus around for writes
system.mem_ctrls.rdPerTurnAround::stdev    216.209004                       # Reads before turning the bus around for writes
system.mem_ctrls.rdPerTurnAround::48-63             1     33.33%     33.33% # Reads before turning the bus around for writes
system.mem_ctrls.rdPerTurnAround::64-79             1     33.33%     66.67% # Reads before turning the bus around for writes
system.mem_ctrls.rdPerTurnAround::432-447            1     33.33%    100.00% # Reads before turning the bus around for writes
system.mem_ctrls.rdPerTurnAround::total             3                       # Reads before turning the bus around for writes
system.mem_ctrls.wrPerTurnAround::samples            3                       # Writes before turning the bus around for reads
system.mem_ctrls.wrPerTurnAround::mean             16                       # Writes before turning the bus around for reads
system.mem_ctrls.wrPerTurnAround::gmean     16.000000                       # Writes before turning the bus around for reads
system.mem_ctrls.wrPerTurnAround::16                3    100.00%    100.00% # Writes before turning the bus around for reads
system.mem_ctrls.wrPerTurnAround::total             3                       # Writes before turning the bus around for reads
system.mem_ctrls.bytesReadDRAM                  37568                       # Total number of bytes read from DRAM
system.mem_ctrls.bytesReadWrQ                    1088                       # Total number of bytes read from write queue
system.mem_ctrls.bytesWritten                    3072                       # Total number of bytes written to DRAM
system.mem_ctrls.bytesReadSys                   38656                       # Total read bytes from the system interface side
system.mem_ctrls.bytesWrittenSys                 5312                       # Total written bytes from the system interface side
system.mem_ctrls.avgRdBW                         4.07                       # Average DRAM read bandwidth in MiByte/s
system.mem_ctrls.avgWrBW                         0.33                       # Average achieved write bandwidth in MiByte/s
system.mem_ctrls.avgRdBWSys                      4.19                       # Average system read bandwidth in MiByte/s
system.mem_ctrls.avgWrBWSys                      0.58                       # Average system write bandwidth in MiByte/s
system.mem_ctrls.peakBW                      12800.00                       # Theoretical peak bandwidth in MiByte/s
system.mem_ctrls.busUtil                         0.03                       # Data bus utilization in percentage
system.mem_ctrls.busUtilRead                     0.03                       # Data bus utilization in percentage for reads
system.mem_ctrls.busUtilWrite                    0.00                       # Data bus utilization in percentage for writes
system.mem_ctrls.totGap                    9226132965                       # Total gap between requests
system.mem_ctrls.avgGap                   13429596.75                       # Average gap between requests
system.mem_ctrls.masterReadBytes::.cpu.inst        24832                       # Per-master bytes read from memory
system.mem_ctrls.masterReadBytes::.cpu.data        12736                       # Per-master bytes read from memory
system.mem_ctrls.masterWriteBytes::.writebacks         3072                       # Per-master bytes write to memory
system.mem_ctrls.masterReadRate::.cpu.inst 2691483.512942394707                       # Per-master bytes read from memory rate (Bytes/sec)
system.mem_ctrls.masterReadRate::.cpu.data 1380425.822359630372                       # Per-master bytes read from memory rate (Bytes/sec)
system.mem_ctrls.masterWriteRate::.writebacks 332967.032528956071                       # Per-master bytes write to memory rate (Bytes/sec)
system.mem_ctrls.masterReadAccesses::.cpu.inst          405                       # Per-master read serviced memory accesses
system.mem_ctrls.masterReadAccesses::.cpu.data          199                       # Per-master read serviced memory accesses
system.mem_ctrls.masterWriteAccesses::.writebacks           83                       # Per-master write serviced memory accesses
system.mem_ctrls.masterReadTotalLat::.cpu.inst      9516265                       # Per-master read total memory access latency
system.mem_ctrls.masterReadTotalLat::.cpu.data      5295177                       # Per-master read total memory access latency
system.mem_ctrls.masterWriteTotalLat::.writebacks 155507185751                       # Per-master write total memory access latency
system.mem_ctrls.masterReadAvgLat::.cpu.inst     23496.95                       # Per-master read average memory access latency
system.mem_ctrls.masterReadAvgLat::.cpu.data     26608.93                       # Per-master read average memory access latency
system.mem_ctrls.masterWriteAvgLat::.writebacks 1873580551.22                       # Per-master write average memory access latency
system.mem_ctrls.pageHitRate                    77.63                       # Row buffer hit rate, read and write combined
system.mem_ctrls.rank1.actEnergy               421260                       # Energy for activate commands per rank (pJ)
system.mem_ctrls.rank1.preEnergy               208725                       # Energy for precharge commands per rank (pJ)
system.mem_ctrls.rank1.readEnergy             2241960                       # Energy for read commands per rank (pJ)
system.mem_ctrls.rank1.writeEnergy              20880                       # Energy for write commands per rank (pJ)
system.mem_ctrls.rank1.refreshEnergy     727733760.000000                       # Energy for refresh commands per rank (pJ)
system.mem_ctrls.rank1.actBackEnergy        152744040                       # Energy for active background per rank (pJ)
system.mem_ctrls.rank1.preBackEnergy       3414210720                       # Energy for precharge background per rank (pJ)
system.mem_ctrls.rank1.actPowerDownEnergy            0                       # Energy for active power-down per rank (pJ)
system.mem_ctrls.rank1.prePowerDownEnergy            0                       # Energy for precharge power-down per rank (pJ)
system.mem_ctrls.rank1.selfRefreshEnergy            0                       # Energy for self refresh per rank (pJ)
system.mem_ctrls.rank1.totalEnergy         4297581345                       # Total energy per rank (pJ)
system.mem_ctrls.rank1.averagePower        465.804983                       # Core power per rank (mW)
system.mem_ctrls.rank1.totalIdleTime                0                       # Total Idle time Per DRAM Rank
system.mem_ctrls.rank1.memoryStateTime::IDLE   8874795327                       # Time in different power states
system.mem_ctrls.rank1.memoryStateTime::REF    307840000                       # Time in different power states
system.mem_ctrls.rank1.memoryStateTime::SREF            0                       # Time in different power states
system.mem_ctrls.rank1.memoryStateTime::PRE_PDN            0                       # Time in different power states
system.mem_ctrls.rank1.memoryStateTime::ACT     43503299                       # Time in different power states
system.mem_ctrls.rank1.memoryStateTime::ACT_PDN            0                       # Time in different power states
system.mem_ctrls.rank0.actEnergy               421260                       # Energy for activate commands per rank (pJ)
system.mem_ctrls.rank0.preEnergy               201135                       # Energy for precharge commands per rank (pJ)
system.mem_ctrls.rank0.readEnergy             1949220                       # Energy for read commands per rank (pJ)
system.mem_ctrls.rank0.writeEnergy             229680                       # Energy for write commands per rank (pJ)
system.mem_ctrls.rank0.refreshEnergy     727733760.000000                       # Energy for refresh commands per rank (pJ)
system.mem_ctrls.rank0.actBackEnergy        149720760                       # Energy for active background per rank (pJ)
system.mem_ctrls.rank0.preBackEnergy       3416756640                       # Energy for precharge background per rank (pJ)
system.mem_ctrls.rank0.actPowerDownEnergy            0                       # Energy for active power-down per rank (pJ)
system.mem_ctrls.rank0.prePowerDownEnergy            0                       # Energy for precharge power-down per rank (pJ)
system.mem_ctrls.rank0.selfRefreshEnergy            0                       # Energy for self refresh per rank (pJ)
system.mem_ctrls.rank0.totalEnergy         4297012455                       # Total energy per rank (pJ)
system.mem_ctrls.rank0.averagePower        465.743322                       # Core power per rank (mW)
system.mem_ctrls.rank0.totalIdleTime                0                       # Total Idle time Per DRAM Rank
system.mem_ctrls.rank0.memoryStateTime::IDLE   8881453343                       # Time in different power states
system.mem_ctrls.rank0.memoryStateTime::REF    307840000                       # Time in different power states
system.mem_ctrls.rank0.memoryStateTime::SREF            0                       # Time in different power states
system.mem_ctrls.rank0.memoryStateTime::PRE_PDN            0                       # Time in different power states
system.mem_ctrls.rank0.memoryStateTime::ACT     36845283                       # Time in different power states
system.mem_ctrls.rank0.memoryStateTime::ACT_PDN            0                       # Time in different power states
system.cpu_clk_domain.clock                       333                       # Clock period in ticks
system.cpu.pwrStateResidencyTicks::ON      9226138626                       # Cumulative time (in ticks) in various power states
system.cpu.icache.pwrStateResidencyTicks::UNDEFINED   9226138626                       # Cumulative time (in ticks) in various power states
system.cpu.icache.demand_hits::.cpu.inst      4451376                       # number of demand (read+write) hits
system.cpu.icache.demand_hits::total          4451376                       # number of demand (read+write) hits
system.cpu.icache.overall_hits::.cpu.inst      4451376                       # number of overall hits
system.cpu.icache.overall_hits::total         4451376                       # number of overall hits
system.cpu.icache.demand_misses::.cpu.inst          406                       # number of demand (read+write) misses
system.cpu.icache.demand_misses::total            406                       # number of demand (read+write) misses
system.cpu.icache.overall_misses::.cpu.inst          406                       # number of overall misses
system.cpu.icache.overall_misses::total           406                       # number of overall misses
system.cpu.icache.demand_miss_latency::.cpu.inst     22653990                       # number of demand (read+write) miss cycles
system.cpu.icache.demand_miss_latency::total     22653990                       # number of demand (read+write) miss cycles
system.cpu.icache.overall_miss_latency::.cpu.inst     22653990                       # number of overall miss cycles
system.cpu.icache.overall_miss_latency::total     22653990                       # number of overall miss cycles
system.cpu.icache.demand_accesses::.cpu.inst      4451782                       # number of demand (read+write) accesses
system.cpu.icache.demand_accesses::total      4451782                       # number of demand (read+write) accesses
system.cpu.icache.overall_accesses::.cpu.inst      4451782                       # number of overall (read+write) accesses
system.cpu.icache.overall_accesses::total      4451782                       # number of overall (read+write) accesses
system.cpu.icache.demand_miss_rate::.cpu.inst     0.000091                       # miss rate for demand accesses
system.cpu.icache.demand_miss_rate::total     0.000091                       # miss rate for demand accesses
system.cpu.icache.overall_miss_rate::.cpu.inst     0.000091                       # miss rate for overall accesses
system.cpu.icache.overall_miss_rate::total     0.000091                       # miss rate for overall accesses
system.cpu.icache.demand_avg_miss_latency::.cpu.inst 55798.004926                       # average overall miss latency
system.cpu.icache.demand_avg_miss_latency::total 55798.004926                       # average overall miss latency
system.cpu.icache.overall_avg_miss_latency::.cpu.inst 55798.004926                       # average overall miss latency
system.cpu.icache.overall_avg_miss_latency::total 55798.004926                       # average overall miss latency
system.cpu.icache.blocked_cycles::no_mshrs            0                       # number of cycles access was blocked
system.cpu.icache.blocked_cycles::no_targets            0                       # number of cycles access was blocked
system.cpu.icache.blocked::no_mshrs                 0                       # number of cycles access was blocked
system.cpu.icache.blocked::no_targets               0                       # number of cycles access was blocked
system.cpu.icache.avg_blocked_cycles::no_mshrs          nan                       # average number of cycles each access was blocked
system.cpu.icache.avg_blocked_cycles::no_targets          nan                       # average number of cycles each access was blocked
system.cpu.icache.writebacks::.writebacks           84                       # number of writebacks
system.cpu.icache.writebacks::total                84                       # number of writebacks
system.cpu.icache.demand_mshr_misses::.cpu.inst          406                       # number of demand (read+write) MSHR misses
system.cpu.icache.demand_mshr_misses::total          406                       # number of demand (read+write) MSHR misses
system.cpu.icache.overall_mshr_misses::.cpu.inst          406                       # number of overall MSHR misses
system.cpu.icache.overall_mshr_misses::total          406                       # number of overall MSHR misses
system.cpu.icache.demand_mshr_miss_latency::.cpu.inst     22317611                       # number of demand (read+write) MSHR miss cycles
system.cpu.icache.demand_mshr_miss_latency::total     22317611                       # number of demand (read+write) MSHR miss cycles
system.cpu.icache.overall_mshr_miss_latency::.cpu.inst     22317611                       # number of overall MSHR miss cycles
system.cpu.icache.overall_mshr_miss_latency::total     22317611                       # number of overall MSHR miss cycles
system.cpu.icache.demand_mshr_miss_rate::.cpu.inst     0.000091                       # mshr miss rate for demand accesses
system.cpu.icache.demand_mshr_miss_rate::total     0.000091                       # mshr miss rate for demand accesses
system.cpu.icache.overall_mshr_miss_rate::.cpu.inst     0.000091                       # mshr miss rate for overall accesses
system.cpu.icache.overall_mshr_miss_rate::total     0.000091                       # mshr miss rate for overall accesses
system.cpu.icache.demand_avg_mshr_miss_latency::.cpu.inst 54969.485222                       # average overall mshr miss latency
system.cpu.icache.demand_avg_mshr_miss_latency::total 54969.485222                       # average overall mshr miss latency
system.cpu.icache.overall_avg_mshr_miss_latency::.cpu.inst 54969.485222                       # average overall mshr miss latency
system.cpu.icache.overall_avg_mshr_miss_latency::total 54969.485222                       # average overall mshr miss latency
system.cpu.icache.replacements                     84                       # number of replacements
system.cpu.icache.ReadReq_hits::.cpu.inst      4451376                       # number of ReadReq hits
system.cpu.icache.ReadReq_hits::total         4451376                       # number of ReadReq hits
system.cpu.icache.ReadReq_misses::.cpu.inst          406                       # number of ReadReq misses
system.cpu.icache.ReadReq_misses::total           406                       # number of ReadReq misses
system.cpu.icache.ReadReq_miss_latency::.cpu.inst     22653990                       # number of ReadReq miss cycles
system.cpu.icache.ReadReq_miss_latency::total     22653990                       # number of ReadReq miss cycles
system.cpu.icache.ReadReq_accesses::.cpu.inst      4451782                       # number of ReadReq accesses(hits+misses)
system.cpu.icache.ReadReq_accesses::total      4451782                       # number of ReadReq accesses(hits+misses)
system.cpu.icache.ReadReq_miss_rate::.cpu.inst     0.000091                       # miss rate for ReadReq accesses
system.cpu.icache.ReadReq_miss_rate::total     0.000091                       # miss rate for ReadReq accesses
system.cpu.icache.ReadReq_avg_miss_latency::.cpu.inst 55798.004926                       # average ReadReq miss latency
system.cpu.icache.ReadReq_avg_miss_latency::total 55798.004926                       # average ReadReq miss latency
system.cpu.icache.ReadReq_mshr_misses::.cpu.inst          406                       # number of ReadReq MSHR misses
system.cpu.icache.ReadReq_mshr_misses::total          406                       # number of ReadReq MSHR misses
system.cpu.icache.ReadReq_mshr_miss_latency::.cpu.inst     22317611                       # number of ReadReq MSHR miss cycles
system.cpu.icache.ReadReq_mshr_miss_latency::total     22317611                       # number of ReadReq MSHR miss cycles
system.cpu.icache.ReadReq_mshr_miss_rate::.cpu.inst     0.000091                       # mshr miss rate for ReadReq accesses
system.cpu.icache.ReadReq_mshr_miss_rate::total     0.000091                       # mshr miss rate for ReadReq accesses
system.cpu.icache.ReadReq_avg_mshr_miss_latency::.cpu.inst 54969.485222                       # average ReadReq mshr miss latency
system.cpu.icache.ReadReq_avg_mshr_miss_latency::total 54969.485222                       # average ReadReq mshr miss latency
system.cpu.icache.tags.pwrStateResidencyTicks::UNDEFINED   9226138626                       # Cumulative time (in ticks) in various power states
system.cpu.icache.tags.tagsinuse           217.125842                       # Cycle average of tags in use
system.cpu.icache.tags.total_refs             4451781                       # Total number of references to valid blocks.
system.cpu.icache.tags.sampled_refs               405                       # Sample count of references to valid blocks.
system.cpu.icache.tags.avg_refs          10992.051852                       # Average number of references to valid blocks.
system.cpu.icache.tags.warmup_cycle             77000                       # Cycle when the warmup percentage was hit.
system.cpu.icache.tags.occ_blocks::.cpu.inst   217.125842                       # Average occupied blocks per requestor
system.cpu.icache.tags.occ_percent::.cpu.inst     0.424074                       # Average percentage of cache occupancy
system.cpu.icache.tags.occ_percent::total     0.424074                       # Average percentage of cache occupancy
system.cpu.icache.tags.occ_task_id_blocks::1024          321                       # Occupied blocks per task id
system.cpu.icache.tags.age_task_id_blocks_1024::0           34                       # Occupied blocks per task id
system.cpu.icache.tags.age_task_id_blocks_1024::2          130                       # Occupied blocks per task id
system.cpu.icache.tags.age_task_id_blocks_1024::3          157                       # Occupied blocks per task id
system.cpu.icache.tags.occ_task_id_percent::1024     0.626953                       # Percentage of cache occupancy per task id
system.cpu.icache.tags.tag_accesses           8903969                       # Number of tag accesses
system.cpu.icache.tags.data_accesses          8903969                       # Number of data accesses
system.cpu.dtb.walker.pwrStateResidencyTicks::UNDEFINED   9226138626                       # Cumulative time (in ticks) in various power states
system.cpu.dtb.stage2_mmu.stage2_tlb.walker.pwrStateResidencyTicks::UNDEFINED   9226138626                       # Cumulative time (in ticks) in various power states
system.cpu.dcache.pwrStateResidencyTicks::UNDEFINED   9226138626                       # Cumulative time (in ticks) in various power states
system.cpu.dcache.demand_hits::.cpu.data      5446449                       # number of demand (read+write) hits
system.cpu.dcache.demand_hits::total          5446449                       # number of demand (read+write) hits
system.cpu.dcache.overall_hits::.cpu.data      5446466                       # number of overall hits
system.cpu.dcache.overall_hits::total         5446466                       # number of overall hits
system.cpu.dcache.demand_misses::.cpu.data          289                       # number of demand (read+write) misses
system.cpu.dcache.demand_misses::total            289                       # number of demand (read+write) misses
system.cpu.dcache.overall_misses::.cpu.data          300                       # number of overall misses
system.cpu.dcache.overall_misses::total           300                       # number of overall misses
system.cpu.dcache.demand_miss_latency::.cpu.data     16670705                       # number of demand (read+write) miss cycles
system.cpu.dcache.demand_miss_latency::total     16670705                       # number of demand (read+write) miss cycles
system.cpu.dcache.overall_miss_latency::.cpu.data     16670705                       # number of overall miss cycles
system.cpu.dcache.overall_miss_latency::total     16670705                       # number of overall miss cycles
system.cpu.dcache.demand_accesses::.cpu.data      5446738                       # number of demand (read+write) accesses
system.cpu.dcache.demand_accesses::total      5446738                       # number of demand (read+write) accesses
system.cpu.dcache.overall_accesses::.cpu.data      5446766                       # number of overall (read+write) accesses
system.cpu.dcache.overall_accesses::total      5446766                       # number of overall (read+write) accesses
system.cpu.dcache.demand_miss_rate::.cpu.data     0.000053                       # miss rate for demand accesses
system.cpu.dcache.demand_miss_rate::total     0.000053                       # miss rate for demand accesses
system.cpu.dcache.overall_miss_rate::.cpu.data     0.000055                       # miss rate for overall accesses
system.cpu.dcache.overall_miss_rate::total     0.000055                       # miss rate for overall accesses
system.cpu.dcache.demand_avg_miss_latency::.cpu.data 57684.100346                       # average overall miss latency
system.cpu.dcache.demand_avg_miss_latency::total 57684.100346                       # average overall miss latency
system.cpu.dcache.overall_avg_miss_latency::.cpu.data 55569.016667                       # average overall miss latency
system.cpu.dcache.overall_avg_miss_latency::total 55569.016667                       # average overall miss latency
system.cpu.dcache.blocked_cycles::no_mshrs            0                       # number of cycles access was blocked
system.cpu.dcache.blocked_cycles::no_targets            0                       # number of cycles access was blocked
system.cpu.dcache.blocked::no_mshrs                 0                       # number of cycles access was blocked
system.cpu.dcache.blocked::no_targets               0                       # number of cycles access was blocked
system.cpu.dcache.avg_blocked_cycles::no_mshrs          nan                       # average number of cycles each access was blocked
system.cpu.dcache.avg_blocked_cycles::no_targets          nan                       # average number of cycles each access was blocked
system.cpu.dcache.demand_mshr_hits::.cpu.data           99                       # number of demand (read+write) MSHR hits
system.cpu.dcache.demand_mshr_hits::total           99                       # number of demand (read+write) MSHR hits
system.cpu.dcache.overall_mshr_hits::.cpu.data           99                       # number of overall MSHR hits
system.cpu.dcache.overall_mshr_hits::total           99                       # number of overall MSHR hits
system.cpu.dcache.demand_mshr_misses::.cpu.data          190                       # number of demand (read+write) MSHR misses
system.cpu.dcache.demand_mshr_misses::total          190                       # number of demand (read+write) MSHR misses
system.cpu.dcache.overall_mshr_misses::.cpu.data          198                       # number of overall MSHR misses
system.cpu.dcache.overall_mshr_misses::total          198                       # number of overall MSHR misses
system.cpu.dcache.demand_mshr_miss_latency::.cpu.data     10992122                       # number of demand (read+write) MSHR miss cycles
system.cpu.dcache.demand_mshr_miss_latency::total     10992122                       # number of demand (read+write) MSHR miss cycles
system.cpu.dcache.overall_mshr_miss_latency::.cpu.data     11530434                       # number of overall MSHR miss cycles
system.cpu.dcache.overall_mshr_miss_latency::total     11530434                       # number of overall MSHR miss cycles
system.cpu.dcache.demand_mshr_miss_rate::.cpu.data     0.000035                       # mshr miss rate for demand accesses
system.cpu.dcache.demand_mshr_miss_rate::total     0.000035                       # mshr miss rate for demand accesses
system.cpu.dcache.overall_mshr_miss_rate::.cpu.data     0.000036                       # mshr miss rate for overall accesses
system.cpu.dcache.overall_mshr_miss_rate::total     0.000036                       # mshr miss rate for overall accesses
system.cpu.dcache.demand_avg_mshr_miss_latency::.cpu.data 57853.273684                       # average overall mshr miss latency
system.cpu.dcache.demand_avg_mshr_miss_latency::total 57853.273684                       # average overall mshr miss latency
system.cpu.dcache.overall_avg_mshr_miss_latency::.cpu.data 58234.515152                       # average overall mshr miss latency
system.cpu.dcache.overall_avg_mshr_miss_latency::total 58234.515152                       # average overall mshr miss latency
system.cpu.dcache.replacements                      0                       # number of replacements
system.cpu.dcache.ReadReq_hits::.cpu.data      3254726                       # number of ReadReq hits
system.cpu.dcache.ReadReq_hits::total         3254726                       # number of ReadReq hits
system.cpu.dcache.ReadReq_misses::.cpu.data           84                       # number of ReadReq misses
system.cpu.dcache.ReadReq_misses::total            84                       # number of ReadReq misses
system.cpu.dcache.ReadReq_miss_latency::.cpu.data      5163530                       # number of ReadReq miss cycles
system.cpu.dcache.ReadReq_miss_latency::total      5163530                       # number of ReadReq miss cycles
system.cpu.dcache.ReadReq_accesses::.cpu.data      3254810                       # number of ReadReq accesses(hits+misses)
system.cpu.dcache.ReadReq_accesses::total      3254810                       # number of ReadReq accesses(hits+misses)
system.cpu.dcache.ReadReq_miss_rate::.cpu.data     0.000026                       # miss rate for ReadReq accesses
system.cpu.dcache.ReadReq_miss_rate::total     0.000026                       # miss rate for ReadReq accesses
system.cpu.dcache.ReadReq_avg_miss_latency::.cpu.data 61470.595238                       # average ReadReq miss latency
system.cpu.dcache.ReadReq_avg_miss_latency::total 61470.595238                       # average ReadReq miss latency
system.cpu.dcache.ReadReq_mshr_hits::.cpu.data            9                       # number of ReadReq MSHR hits
system.cpu.dcache.ReadReq_mshr_hits::total            9                       # number of ReadReq MSHR hits
system.cpu.dcache.ReadReq_mshr_misses::.cpu.data           75                       # number of ReadReq MSHR misses
system.cpu.dcache.ReadReq_mshr_misses::total           75                       # number of ReadReq MSHR misses
system.cpu.dcache.ReadReq_mshr_miss_latency::.cpu.data      4550618                       # number of ReadReq MSHR miss cycles
system.cpu.dcache.ReadReq_mshr_miss_latency::total      4550618                       # number of ReadReq MSHR miss cycles
system.cpu.dcache.ReadReq_mshr_miss_rate::.cpu.data     0.000023                       # mshr miss rate for ReadReq accesses
system.cpu.dcache.ReadReq_mshr_miss_rate::total     0.000023                       # mshr miss rate for ReadReq accesses
system.cpu.dcache.ReadReq_avg_mshr_miss_latency::.cpu.data 60674.906667                       # average ReadReq mshr miss latency
system.cpu.dcache.ReadReq_avg_mshr_miss_latency::total 60674.906667                       # average ReadReq mshr miss latency
system.cpu.dcache.WriteReq_hits::.cpu.data      2191723                       # number of WriteReq hits
system.cpu.dcache.WriteReq_hits::total        2191723                       # number of WriteReq hits
system.cpu.dcache.WriteReq_misses::.cpu.data          205                       # number of WriteReq misses
system.cpu.dcache.WriteReq_misses::total          205                       # number of WriteReq misses
system.cpu.dcache.WriteReq_miss_latency::.cpu.data     11507175                       # number of WriteReq miss cycles
system.cpu.dcache.WriteReq_miss_latency::total     11507175                       # number of WriteReq miss cycles
system.cpu.dcache.WriteReq_accesses::.cpu.data      2191928                       # number of WriteReq accesses(hits+misses)
system.cpu.dcache.WriteReq_accesses::total      2191928                       # number of WriteReq accesses(hits+misses)
system.cpu.dcache.WriteReq_miss_rate::.cpu.data     0.000094                       # miss rate for WriteReq accesses
system.cpu.dcache.WriteReq_miss_rate::total     0.000094                       # miss rate for WriteReq accesses
system.cpu.dcache.WriteReq_avg_miss_latency::.cpu.data 56132.560976                       # average WriteReq miss latency
system.cpu.dcache.WriteReq_avg_miss_latency::total 56132.560976                       # average WriteReq miss latency
system.cpu.dcache.WriteReq_mshr_hits::.cpu.data           90                       # number of WriteReq MSHR hits
system.cpu.dcache.WriteReq_mshr_hits::total           90                       # number of WriteReq MSHR hits
system.cpu.dcache.WriteReq_mshr_misses::.cpu.data          115                       # number of WriteReq MSHR misses
system.cpu.dcache.WriteReq_mshr_misses::total          115                       # number of WriteReq MSHR misses
system.cpu.dcache.WriteReq_mshr_miss_latency::.cpu.data      6441504                       # number of WriteReq MSHR miss cycles
system.cpu.dcache.WriteReq_mshr_miss_latency::total      6441504                       # number of WriteReq MSHR miss cycles
system.cpu.dcache.WriteReq_mshr_miss_rate::.cpu.data     0.000052                       # mshr miss rate for WriteReq accesses
system.cpu.dcache.WriteReq_mshr_miss_rate::total     0.000052                       # mshr miss rate for WriteReq accesses
system.cpu.dcache.WriteReq_avg_mshr_miss_latency::.cpu.data 56013.078261                       # average WriteReq mshr miss latency
system.cpu.dcache.WriteReq_avg_mshr_miss_latency::total 56013.078261                       # average WriteReq mshr miss latency
system.cpu.dcache.SoftPFReq_hits::.cpu.data           17                       # number of SoftPFReq hits
system.cpu.dcache.SoftPFReq_hits::total            17                       # number of SoftPFReq hits
system.cpu.dcache.SoftPFReq_misses::.cpu.data           11                       # number of SoftPFReq misses
system.cpu.dcache.SoftPFReq_misses::total           11                       # number of SoftPFReq misses
system.cpu.dcache.SoftPFReq_accesses::.cpu.data           28                       # number of SoftPFReq accesses(hits+misses)
system.cpu.dcache.SoftPFReq_accesses::total           28                       # number of SoftPFReq accesses(hits+misses)
system.cpu.dcache.SoftPFReq_miss_rate::.cpu.data     0.392857                       # miss rate for SoftPFReq accesses
system.cpu.dcache.SoftPFReq_miss_rate::total     0.392857                       # miss rate for SoftPFReq accesses
system.cpu.dcache.SoftPFReq_mshr_misses::.cpu.data            8                       # number of SoftPFReq MSHR misses
system.cpu.dcache.SoftPFReq_mshr_misses::total            8                       # number of SoftPFReq MSHR misses
system.cpu.dcache.SoftPFReq_mshr_miss_latency::.cpu.data       538312                       # number of SoftPFReq MSHR miss cycles
system.cpu.dcache.SoftPFReq_mshr_miss_latency::total       538312                       # number of SoftPFReq MSHR miss cycles
system.cpu.dcache.SoftPFReq_mshr_miss_rate::.cpu.data     0.285714                       # mshr miss rate for SoftPFReq accesses
system.cpu.dcache.SoftPFReq_mshr_miss_rate::total     0.285714                       # mshr miss rate for SoftPFReq accesses
system.cpu.dcache.SoftPFReq_avg_mshr_miss_latency::.cpu.data        67289                       # average SoftPFReq mshr miss latency
system.cpu.dcache.SoftPFReq_avg_mshr_miss_latency::total        67289                       # average SoftPFReq mshr miss latency
system.cpu.dcache.LoadLockedReq_hits::.cpu.data         2015                       # number of LoadLockedReq hits
system.cpu.dcache.LoadLockedReq_hits::total         2015                       # number of LoadLockedReq hits
system.cpu.dcache.LoadLockedReq_misses::.cpu.data            1                       # number of LoadLockedReq misses
system.cpu.dcache.LoadLockedReq_misses::total            1                       # number of LoadLockedReq misses
system.cpu.dcache.LoadLockedReq_miss_latency::.cpu.data        64935                       # number of LoadLockedReq miss cycles
system.cpu.dcache.LoadLockedReq_miss_latency::total        64935                       # number of LoadLockedReq miss cycles
system.cpu.dcache.LoadLockedReq_accesses::.cpu.data         2016                       # number of LoadLockedReq accesses(hits+misses)
system.cpu.dcache.LoadLockedReq_accesses::total         2016                       # number of LoadLockedReq accesses(hits+misses)
system.cpu.dcache.LoadLockedReq_miss_rate::.cpu.data     0.000496                       # miss rate for LoadLockedReq accesses
system.cpu.dcache.LoadLockedReq_miss_rate::total     0.000496                       # miss rate for LoadLockedReq accesses
system.cpu.dcache.LoadLockedReq_avg_miss_latency::.cpu.data        64935                       # average LoadLockedReq miss latency
system.cpu.dcache.LoadLockedReq_avg_miss_latency::total        64935                       # average LoadLockedReq miss latency
system.cpu.dcache.LoadLockedReq_mshr_misses::.cpu.data            1                       # number of LoadLockedReq MSHR misses
system.cpu.dcache.LoadLockedReq_mshr_misses::total            1                       # number of LoadLockedReq MSHR misses
system.cpu.dcache.LoadLockedReq_mshr_miss_latency::.cpu.data        64266                       # number of LoadLockedReq MSHR miss cycles
system.cpu.dcache.LoadLockedReq_mshr_miss_latency::total        64266                       # number of LoadLockedReq MSHR miss cycles
system.cpu.dcache.LoadLockedReq_mshr_miss_rate::.cpu.data     0.000496                       # mshr miss rate for LoadLockedReq accesses
system.cpu.dcache.LoadLockedReq_mshr_miss_rate::total     0.000496                       # mshr miss rate for LoadLockedReq accesses
system.cpu.dcache.LoadLockedReq_avg_mshr_miss_latency::.cpu.data        64266                       # average LoadLockedReq mshr miss latency
system.cpu.dcache.LoadLockedReq_avg_mshr_miss_latency::total        64266                       # average LoadLockedReq mshr miss latency
system.cpu.dcache.StoreCondReq_hits::.cpu.data         2016                       # number of StoreCondReq hits
system.cpu.dcache.StoreCondReq_hits::total         2016                       # number of StoreCondReq hits
system.cpu.dcache.StoreCondReq_accesses::.cpu.data         2016                       # number of StoreCondReq accesses(hits+misses)
system.cpu.dcache.StoreCondReq_accesses::total         2016                       # number of StoreCondReq accesses(hits+misses)
system.cpu.dcache.tags.pwrStateResidencyTicks::UNDEFINED   9226138626                       # Cumulative time (in ticks) in various power states
system.cpu.dcache.tags.tagsinuse           158.851764                       # Cycle average of tags in use
system.cpu.dcache.tags.total_refs             5450696                       # Total number of references to valid blocks.
system.cpu.dcache.tags.sampled_refs               199                       # Sample count of references to valid blocks.
system.cpu.dcache.tags.avg_refs          27390.432161                       # Average number of references to valid blocks.
system.cpu.dcache.tags.warmup_cycle            144000                       # Cycle when the warmup percentage was hit.
system.cpu.dcache.tags.occ_blocks::.cpu.data   158.851764                       # Average occupied blocks per requestor
system.cpu.dcache.tags.occ_percent::.cpu.data     0.155129                       # Average percentage of cache occupancy
system.cpu.dcache.tags.occ_percent::total     0.155129                       # Average percentage of cache occupancy
system.cpu.dcache.tags.occ_task_id_blocks::1024          199                       # Occupied blocks per task id
system.cpu.dcache.tags.age_task_id_blocks_1024::0            7                       # Occupied blocks per task id
system.cpu.dcache.tags.age_task_id_blocks_1024::2           35                       # Occupied blocks per task id
system.cpu.dcache.tags.age_task_id_blocks_1024::3          157                       # Occupied blocks per task id
system.cpu.dcache.tags.occ_task_id_percent::1024     0.194336                       # Percentage of cache occupancy per task id
system.cpu.dcache.tags.tag_accesses          10901795                       # Number of tag accesses
system.cpu.dcache.tags.data_accesses         10901795                       # Number of data accesses
system.cpu.itb.walker.pwrStateResidencyTicks::UNDEFINED   9226138626                       # Cumulative time (in ticks) in various power states
system.cpu.itb.stage2_mmu.stage2_tlb.walker.pwrStateResidencyTicks::UNDEFINED   9226138626                       # Cumulative time (in ticks) in various power states

---------- End Simulation Statistics   ----------
